<routes xmlns:xsi="http://www.w3.org/2001/XMLSchema-instance" xsi:noNamespaceSchemaLocation="http://sumo.dlr.de/xsd/routes_file.xsd">
    <vType id="veh_passenger" vClass="passenger">
    </vType>
    <trip depart="0.87" departLane="best" from="5674356" id="veh2" to="495491358#2" type="veh_passenger" />
    <trip depart="2.60" departLane="best" from="-221586639#2" id="veh6" to="-639763613#1" type="veh_passenger" />
    <trip depart="3.04" departLane="best" from="46835354" id="veh7" to="460576121" type="veh_passenger" />
    <trip depart="4.78" departLane="best" from="221696386#9" id="veh11" to="-5678101#7" type="veh_passenger" />
    <trip depart="5.21" departLane="best" from="578129950#1" id="veh12" to="222258277" type="veh_passenger" />
    <trip depart="6.08" departLane="best" from="5678784#10" id="veh14" to="46818904#15" type="veh_passenger" />
    <trip depart="6.51" departLane="best" from="5677932" id="veh15" to="5675915#1" type="veh_passenger" />
    <trip depart="6.95" departLane="best" from="421084098" id="veh16" to="626315789#0" type="veh_passenger" />
    <trip depart="7.38" departLane="best" from="222258273#0" id="veh17" to="460779250#16" type="veh_passenger" />
    <trip depart="11.29" departLane="best" from="111781747#0" id="veh26" to="5682095#3" type="veh_passenger" />
    <trip depart="12.15" departLane="best" from="-497256111" id="veh28" to="5675809" type="veh_passenger" />
    <trip depart="14.76" departLane="best" from="221585914#7" id="veh34" to="221585914#23" type="veh_passenger" />
    <trip depart="15.63" departLane="best" from="5679904#11" id="veh36" to="221777100#14" type="veh_passenger" />
    <trip depart="16.06" departLane="best" from="46838317#1" id="veh37" to="274894225" type="veh_passenger" />
    <trip depart="18.67" departLane="best" from="686370900" id="veh43" to="421755067#1" type="veh_passenger" />
    <trip depart="19.53" departLane="best" from="-420880051#1" id="veh45" to="46835370#3" type="veh_passenger" />
    <trip depart="20.40" departLane="best" from="-227074810" id="veh47" to="239626766" type="veh_passenger" />
    <trip depart="22.14" departLane="best" from="479748558#1" id="veh51" to="451915593#1" type="veh_passenger" />
    <trip depart="22.57" departLane="best" from="110345443" id="veh52" to="46863840#0" type="veh_passenger" />
    <trip depart="23.44" departLane="best" from="308338866" id="veh54" to="573632388" type="veh_passenger" />
    <trip depart="24.31" departLane="best" from="41381890#1" id="veh56" to="-5680477" type="veh_passenger" />
    <trip depart="24.74" departLane="best" from="5680853#0" id="veh57" to="5680120#2" type="veh_passenger" />
    <trip depart="25.18" departLane="best" from="219964442#0" id="veh58" to="46863774#0" type="veh_passenger" />
    <trip depart="29.08" departLane="best" from="-360608776" id="veh67" to="420567572" type="veh_passenger" />
    <trip depart="29.52" departLane="best" from="-23334074#1" id="veh68" to="5677037#25" type="veh_passenger" />
    <trip depart="30.82" departLane="best" from="110155730#2" id="veh71" to="5680159#3" type="veh_passenger" />
    <trip depart="31.25" departLane="best" from="25564091#2" id="veh72" to="107391104#3" type="veh_passenger" />
    <trip depart="32.99" departLane="best" from="276043628#3" id="veh76" to="43314997#1" type="veh_passenger" />
    <trip depart="33.43" departLane="best" from="-432554453#9" id="veh77" to="123001149#6" type="veh_passenger" />
    <trip depart="33.86" departLane="best" from="221696386#10" id="veh78" to="46788750" type="veh_passenger" />
    <trip depart="34.29" departLane="best" from="-5682164#2" id="veh79" to="122625672#1" type="veh_passenger" />
    <trip depart="35.16" departLane="best" from="-5681578" id="veh81" to="5680955#0" type="veh_passenger" />
    <trip depart="35.60" departLane="best" from="5679437#1" id="veh82" to="-40785409#0" type="veh_passenger" />
    <trip depart="36.46" departLane="best" from="-5679829" id="veh84" to="-497257603#0" type="veh_passenger" />
    <trip depart="36.90" departLane="best" from="5681691#0" id="veh85" to="463957168" type="veh_passenger" />
    <trip depart="37.33" departLane="best" from="349369490" id="veh86" to="5677585#1" type="veh_passenger" />
    <trip depart="39.07" departLane="best" from="542169856#12" id="veh90" to="494221659#8" type="veh_passenger" />
    <trip depart="40.81" departLane="best" from="-5678101#0" id="veh94" to="37523639" type="veh_passenger" />
    <trip depart="42.11" departLane="best" from="276083330#4" id="veh97" to="5679892#2" type="veh_passenger" />
    <trip depart="42.98" departLane="best" from="97010378#0" id="veh99" to="5678929#3" type="veh_passenger" />
    <trip depart="43.84" departLane="best" from="5678784#18" id="veh101" to="-5678919#1" type="veh_passenger" />
    <trip depart="44.71" departLane="best" from="227074781#7" id="veh103" to="-239626769#3" type="veh_passenger" />
    <trip depart="45.58" departLane="best" from="110155730#2" id="veh105" to="5677511" type="veh_passenger" />
    <trip depart="47.32" departLane="best" from="-46835364" id="veh109" to="221696386#9" type="veh_passenger" />
    <trip depart="48.18" departLane="best" from="421752007" id="veh111" to="5676705" type="veh_passenger" />
    <trip depart="49.05" departLane="best" from="420304949" id="veh113" to="5679758#3" type="veh_passenger" />
    <trip depart="49.49" departLane="best" from="-46863774#2" id="veh114" to="587067526#1" type="veh_passenger" />
    <trip depart="50.36" departLane="best" from="46121854" id="veh116" to="495491356#1" type="veh_passenger" />
    <trip depart="51.22" departLane="best" from="5680167#4" id="veh118" to="204842637#0" type="veh_passenger" />
    <trip depart="53.83" departLane="best" from="46865765#4" id="veh124" to="221731898#0" type="veh_passenger" />
    <trip depart="55.56" departLane="best" from="-239626769#2" id="veh128" to="108166470" type="veh_passenger" />
    <trip depart="56.87" departLane="best" from="222246539#1" id="veh131" to="-5678246#0" type="veh_passenger" />
    <trip depart="57.73" departLane="best" from="46786494" id="veh133" to="660084150#2" type="veh_passenger" />
    <trip depart="58.17" departLane="best" from="46835402#0" id="veh134" to="-154513052" type="veh_passenger" />
    <trip depart="61.21" departLane="best" from="46818904#4" id="veh141" to="221585909#1" type="veh_passenger" />
    <trip depart="62.08" departLane="best" from="25723095#1" id="veh143" to="221586639#1" type="veh_passenger" />
    <trip depart="62.51" departLane="best" from="-139919720#1" id="veh144" to="5677211" type="veh_passenger" />
    <trip depart="63.38" departLane="best" from="5675267#0" id="veh146" to="460779250#16" type="veh_passenger" />
    <trip depart="64.25" departLane="best" from="-25198746#0" id="veh148" to="5680476#2" type="veh_passenger" />
    <trip depart="65.55" departLane="best" from="221585906#5" id="veh151" to="5680807#1" type="veh_passenger" />
    <trip depart="66.85" departLane="best" from="-636728274#7" id="veh154" to="-46121844#1" type="veh_passenger" />
    <trip depart="68.59" departLane="best" from="5679708#3" id="veh158" to="639118784#1" type="veh_passenger" />
    <trip depart="69.02" departLane="best" from="5677949#26" id="veh159" to="5680442#2" type="veh_passenger" />
    <trip depart="71.19" departLane="best" from="5677047" id="veh164" to="-46772622#0" type="veh_passenger" />
    <trip depart="73.80" departLane="best" from="618977202#1" id="veh170" to="221586643#1" type="veh_passenger" />
    <trip depart="74.23" departLane="best" from="46835336#10" id="veh171" to="275303303#0" type="veh_passenger" />
    <trip depart="74.66" departLane="best" from="654744279" id="veh172" to="451915591#2" type="veh_passenger" />
    <trip depart="75.10" departLane="best" from="5681940#0" id="veh173" to="-46818904#12" type="veh_passenger" />
    <trip depart="76.84" departLane="best" from="542169856#1" id="veh177" to="221759333#0" type="veh_passenger" />
    <trip depart="78.57" departLane="best" from="-111781747#1" id="veh181" to="5681577#0" type="veh_passenger" />
    <trip depart="79.01" departLane="best" from="421116795#1" id="veh182" to="5674509" type="veh_passenger" />
    <trip depart="79.44" departLane="best" from="5675271#4" id="veh183" to="489437292#7" type="veh_passenger" />
    <trip depart="83.78" departLane="best" from="221446578#3" id="veh193" to="460584837#8" type="veh_passenger" />
    <trip depart="84.21" departLane="best" from="-108166470" id="veh194" to="221605483#0" type="veh_passenger" />
    <trip depart="84.65" departLane="best" from="275355374" id="veh195" to="46786487" type="veh_passenger" />
    <trip depart="85.95" departLane="best" from="350687715#1" id="veh198" to="5680852" type="veh_passenger" />
    <trip depart="87.25" departLane="best" from="46818904#14" id="veh201" to="222258273#2" type="veh_passenger" />
    <trip depart="87.69" departLane="best" from="5678147#3" id="veh202" to="5676852#3" type="veh_passenger" />
    <trip depart="88.12" departLane="best" from="46865766" id="veh203" to="123001149#5" type="veh_passenger" />
    <trip depart="89.42" departLane="best" from="5678784#23" id="veh206" to="-420317203" type="veh_passenger" />
    <trip depart="89.86" departLane="best" from="23334073" id="veh207" to="46838315" type="veh_passenger" />
    <trip depart="91.59" departLane="best" from="5675963#3" id="veh211" to="5677205#2" type="veh_passenger" />
    <trip depart="92.90" departLane="best" from="420346499" id="veh214" to="-227074781#4" type="veh_passenger" />
    <trip depart="93.33" departLane="best" from="-636728274#7" id="veh215" to="5679708#13" type="veh_passenger" />
    <trip depart="95.50" departLane="best" from="524340776#7" id="veh220" to="421116792" type="veh_passenger" />
    <trip depart="99.84" departLane="best" from="-569164780" id="veh230" to="511768217" type="veh_passenger" />
    <trip depart="102.88" departLane="best" from="222258278" id="veh237" to="-154513049#0" type="veh_passenger" />
    <trip depart="103.31" departLane="best" from="221759319" id="veh238" to="5676937" type="veh_passenger" />
    <trip depart="105.05" departLane="best" from="-5680736" id="veh242" to="122625672#1" type="veh_passenger" />
    <trip depart="105.49" departLane="best" from="276024637#25" id="veh243" to="-221731898#1" type="veh_passenger" />
    <trip depart="106.35" departLane="best" from="227074794#0" id="veh245" to="-5678419" type="veh_passenger" />
    <trip depart="106.79" departLane="best" from="34593472#4" id="veh246" to="-483140982#0" type="veh_passenger" />
    <trip depart="107.66" departLane="best" from="227064556#3" id="veh248" to="46137555#0" type="veh_passenger" />
    <trip depart="108.09" departLane="best" from="-221586639#2" id="veh249" to="46863844#18" type="veh_passenger" />
    <trip depart="108.52" departLane="best" from="-46121867#1" id="veh250" to="40416345" type="veh_passenger" />
    <trip depart="109.83" departLane="best" from="5676531#1" id="veh253" to="23334073" type="veh_passenger" />
    <trip depart="110.26" departLane="best" from="5675963#9" id="veh254" to="5678784#23" type="veh_passenger" />
    <trip depart="111.56" departLane="best" from="97010425#2" id="veh257" to="227064551#0" type="veh_passenger" />
    <trip depart="112.00" departLane="best" from="46835357#0" id="veh258" to="5677438#25" type="veh_passenger" />
    <trip depart="114.60" departLane="best" from="497253780#2" id="veh264" to="5677112#6" type="veh_passenger" />
    <trip depart="115.90" departLane="best" from="5678182#1" id="veh267" to="587355763" type="veh_passenger" />
    <trip depart="116.77" departLane="best" from="221585914#11" id="veh269" to="495491358#2" type="veh_passenger" />
    <trip depart="117.64" departLane="best" from="515885162#4" id="veh271" to="-420567574" type="veh_passenger" />
    <trip depart="118.51" departLane="best" from="-420346497" id="veh273" to="5677338" type="veh_passenger" />
    <trip depart="120.24" departLane="best" from="275303293#0" id="veh277" to="23168562" type="veh_passenger" />
    <trip depart="120.68" departLane="best" from="420318567" id="veh278" to="227064513#0" type="veh_passenger" />
    <trip depart="121.98" departLane="best" from="46818905#3" id="veh281" to="5678756#9" type="veh_passenger" />
    <trip depart="122.42" departLane="best" from="497258460#0" id="veh282" to="347309380#2" type="veh_passenger" />
    <trip depart="123.72" departLane="best" from="421116794" id="veh285" to="420346484#1" type="veh_passenger" />
    <trip depart="124.59" departLane="best" from="111781747#6" id="veh287" to="5679720" type="veh_passenger" />
    <trip depart="125.89" departLane="best" from="343990838#0" id="veh290" to="46820403#3" type="veh_passenger" />
    <trip depart="126.76" departLane="best" from="5678784#6" id="veh292" to="-5680931" type="veh_passenger" />
    <trip depart="127.19" departLane="best" from="-5679720" id="veh293" to="5678025" type="veh_passenger" />
    <trip depart="128.49" departLane="best" from="-183916203#1" id="veh296" to="5710128#6" type="veh_passenger" />
    <trip depart="129.36" departLane="best" from="489437292#11" id="veh298" to="46863850" type="veh_passenger" />
    <trip depart="129.79" departLane="best" from="39956193#2" id="veh299" to="5677949#15" type="veh_passenger" />
    <trip depart="131.10" departLane="best" from="460569807#1" id="veh302" to="420304917" type="veh_passenger" />
    <trip depart="131.53" departLane="best" from="420880045" id="veh303" to="334262992#1" type="veh_passenger" />
    <trip depart="131.97" departLane="best" from="5675573#9" id="veh304" to="222248831#0" type="veh_passenger" />
    <trip depart="133.27" departLane="best" from="420886411" id="veh307" to="5677037#36" type="veh_passenger" />
    <trip depart="134.14" departLane="best" from="37977968" id="veh309" to="5675573#10" type="veh_passenger" />
    <trip depart="138.48" departLane="best" from="-5676914" id="veh319" to="-227074786#14" type="veh_passenger" />
    <trip depart="139.78" departLane="best" from="-243503933" id="veh322" to="46838315" type="veh_passenger" />
    <trip depart="140.21" departLane="best" from="-227064558" id="veh323" to="-5676937" type="veh_passenger" />
    <trip depart="141.08" departLane="best" from="68523765#2" id="veh325" to="-46818905#4" type="veh_passenger" />
    <trip depart="141.95" departLane="best" from="5677167#1" id="veh327" to="123001151#3" type="veh_passenger" />
    <trip depart="142.82" departLane="best" from="276083330#2" id="veh329" to="5679875#0" type="veh_passenger" />
    <trip depart="147.16" departLane="best" from="497257603#12" id="veh339" to="38341528#3" type="veh_passenger" />
    <trip depart="148.03" departLane="best" from="5677047" id="veh341" to="46835367#3" type="veh_passenger" />
    <trip depart="148.46" departLane="best" from="46863673#1" id="veh342" to="5682006" type="veh_passenger" />
    <trip depart="148.89" departLane="best" from="262798842#0" id="veh343" to="460576113" type="veh_passenger" />
    <trip depart="150.20" departLane="best" from="-494221659#7" id="veh346" to="221759320#33" type="veh_passenger" />
    <trip depart="150.63" departLane="best" from="5675798" id="veh347" to="46189305" type="veh_passenger" />
    <trip depart="153.24" departLane="best" from="221586638#7" id="veh353" to="219964428#15" type="veh_passenger" />
    <trip depart="153.67" departLane="best" from="-39613244#1" id="veh354" to="587067529#1" type="veh_passenger" />
    <trip depart="154.10" departLane="best" from="5678409" id="veh355" to="464551540#2" type="veh_passenger" />
    <trip depart="155.41" departLane="best" from="-221777100#11" id="veh358" to="5676994#5" type="veh_passenger" />
    <trip depart="155.84" departLane="best" from="347014806#2" id="veh359" to="471943031#3" type="veh_passenger" />
    <trip depart="156.27" departLane="best" from="5680931" id="veh360" to="-5680875#1" type="veh_passenger" />
    <trip depart="157.14" departLane="best" from="40117454#3" id="veh362" to="-432552981#1" type="veh_passenger" />
    <trip depart="158.88" departLane="best" from="154513057" id="veh366" to="5707635#3" type="veh_passenger" />
    <trip depart="159.31" departLane="best" from="5677950#7" id="veh367" to="460585585#9" type="veh_passenger" />
    <trip depart="159.75" departLane="best" from="308340267#5" id="veh368" to="221777100#13" type="veh_passenger" />
    <trip depart="160.18" departLane="best" from="221586644" id="veh369" to="619552358" type="veh_passenger" />
    <trip depart="160.62" departLane="best" from="227074793#3" id="veh370" to="432552980#0" type="veh_passenger" />
    <trip depart="161.92" departLane="best" from="-5677211" id="veh373" to="227074786#15" type="veh_passenger" />
    <trip depart="165.39" departLane="best" from="43314997#1" id="veh381" to="-432554456#0" type="veh_passenger" />
    <trip depart="165.82" departLane="best" from="68338645" id="veh382" to="5681030#7" type="veh_passenger" />
    <trip depart="167.13" departLane="best" from="51980526#2" id="veh385" to="421754837" type="veh_passenger" />
    <trip depart="168.00" departLane="best" from="654744274#2" id="veh387" to="183916221#3" type="veh_passenger" />
    <trip depart="168.43" departLane="best" from="432554453#8" id="veh388" to="243503933" type="veh_passenger" />
    <trip depart="169.30" departLane="best" from="5679924" id="veh390" to="5679904#4" type="veh_passenger" />
    <trip depart="169.73" departLane="best" from="127739252" id="veh391" to="5677926#1" type="veh_passenger" />
    <trip depart="170.60" departLane="best" from="420319832#3" id="veh393" to="5678442#2" type="veh_passenger" />
    <trip depart="171.47" departLane="best" from="460585585#2" id="veh395" to="97010373#0" type="veh_passenger" />
    <trip depart="172.34" departLane="best" from="421116795#1" id="veh397" to="227064524" type="veh_passenger" />
    <trip depart="174.51" departLane="best" from="5676939#3" id="veh402" to="-227064529#0" type="veh_passenger" />
    <trip depart="174.94" departLane="best" from="5675573#10" id="veh403" to="530568998#4" type="veh_passenger" />
    <trip depart="175.37" departLane="best" from="5677949#4" id="veh404" to="25027185#1" type="veh_passenger" />
    <trip depart="175.81" departLane="best" from="46863840#2" id="veh405" to="5678442#20" type="veh_passenger" />
    <trip depart="176.24" departLane="best" from="654744274#6" id="veh406" to="420875688" type="veh_passenger" />
    <trip depart="176.68" departLane="best" from="-221753948#1" id="veh407" to="420886403" type="veh_passenger" />
    <trip depart="177.55" departLane="best" from="5679887#1" id="veh409" to="354926644#1" type="veh_passenger" />
    <trip depart="178.41" departLane="best" from="526209963#0" id="veh411" to="276083330#1" type="veh_passenger" />
    <trip depart="179.28" departLane="best" from="347014805#3" id="veh413" to="618977199#0" type="veh_passenger" />
    <trip depart="180.15" departLane="best" from="46835354" id="veh415" to="5679720" type="veh_passenger" />
    <trip depart="180.58" departLane="best" from="5678919#1" id="veh416" to="5679854#5" type="veh_passenger" />
    <trip depart="181.02" departLane="best" from="222258273#9" id="veh417" to="221777100#4" type="veh_passenger" />
    <trip depart="181.45" departLane="best" from="524340776#2" id="veh418" to="5677037#19" type="veh_passenger" />
    <trip depart="183.19" departLane="best" from="5675664#1" id="veh422" to="347014805#4" type="veh_passenger" />
    <trip depart="185.36" departLane="best" from="206610786#1" id="veh427" to="232270200#2" type="veh_passenger" />
    <trip depart="185.79" departLane="best" from="-46788749#1" id="veh428" to="451413253#3" type="veh_passenger" />
    <trip depart="186.23" departLane="best" from="451380996#0" id="veh429" to="5677949#13" type="veh_passenger" />
    <trip depart="187.10" departLane="best" from="5679854#13" id="veh431" to="46835350#1-AddedOffRampEdge" type="veh_passenger" />
    <trip depart="188.40" departLane="best" from="-658936644#0" id="veh434" to="221570521#5" type="veh_passenger" />
    <trip depart="188.83" departLane="best" from="-183916201" id="veh435" to="5678215#13" type="veh_passenger" />
    <trip depart="190.13" departLane="best" from="221753934#1" id="veh438" to="46788749#0" type="veh_passenger" />
    <trip depart="190.57" departLane="best" from="46820144" id="veh439" to="315569176#1" type="veh_passenger" />
    <trip depart="191.87" departLane="best" from="37793000#0" id="veh442" to="183794559#6" type="veh_passenger" />
    <trip depart="192.30" departLane="best" from="451910414#4" id="veh443" to="464551539#1" type="veh_passenger" />
    <trip depart="193.17" departLane="best" from="641437655" id="veh445" to="479748558#2" type="veh_passenger" />
    <trip depart="194.91" departLane="best" from="40785410#0" id="veh449" to="5680913#1" type="veh_passenger" />
    <trip depart="198.38" departLane="best" from="276050435#3" id="veh457" to="46774572#0" type="veh_passenger" />
    <trip depart="198.82" departLane="best" from="545291572#1" id="veh458" to="-432552977" type="veh_passenger" />
    <trip depart="201.42" departLane="best" from="5678246#2" id="veh464" to="420346459" type="veh_passenger" />
    <trip depart="202.72" departLane="best" from="587355778#3" id="veh467" to="-5674866" type="veh_passenger" />
    <trip depart="204.46" departLane="best" from="221795718" id="veh471" to="5677926#7" type="veh_passenger" />
    <trip depart="205.33" departLane="best" from="308340267#5" id="veh473" to="494221659#8" type="veh_passenger" />
    <trip depart="205.76" departLane="best" from="46865765#8" id="veh474" to="46788738" type="veh_passenger" />
    <trip depart="206.20" departLane="best" from="5678233#1" id="veh475" to="5682184#9" type="veh_passenger" />
    <trip depart="206.63" departLane="best" from="-420875713#1" id="veh476" to="183103091#1" type="veh_passenger" />
    <trip depart="207.50" departLane="best" from="450610492#18" id="veh478" to="5681171" type="veh_passenger" />
    <trip depart="209.23" departLane="best" from="-464551540#0" id="veh482" to="5707635#5" type="veh_passenger" />
    <trip depart="210.54" departLane="best" from="-46121867#1" id="veh485" to="38341528#0" type="veh_passenger" />
    <trip depart="210.97" departLane="best" from="46865764#8" id="veh486" to="5676489#4" type="veh_passenger" />
    <trip depart="211.40" departLane="best" from="5682184#13" id="veh487" to="295384457#1" type="veh_passenger" />
    <trip depart="213.14" departLane="best" from="5707293#0" id="veh491" to="-221759323#1" type="veh_passenger" />
    <trip depart="214.01" departLane="best" from="5706243" id="veh493" to="5679790#1" type="veh_passenger" />
    <trip depart="216.18" departLane="best" from="5678784#14" id="veh498" to="38654451" type="veh_passenger" />
    <trip depart="217.05" departLane="best" from="46121873#1" id="veh500" to="-221585916#3" type="veh_passenger" />
    <trip depart="218.35" departLane="best" from="-232270200#4" id="veh503" to="5677112#1" type="veh_passenger" />
    <trip depart="218.78" departLane="best" from="-5679171#11" id="veh504" to="110277551#2" type="veh_passenger" />
    <trip depart="219.22" departLane="best" from="5679829" id="veh505" to="222246979" type="veh_passenger" />
    <trip depart="220.52" departLane="best" from="-46788749#1" id="veh508" to="-497253780#0" type="veh_passenger" />
    <trip depart="220.95" departLane="best" from="-654744274#0" id="veh509" to="-5679924" type="veh_passenger" />
    <trip depart="221.39" departLane="best" from="46863673#0" id="veh510" to="-221604537#1" type="veh_passenger" />
    <trip depart="221.82" departLane="best" from="-219964428#12" id="veh511" to="5677926#1" type="veh_passenger" />
    <trip depart="223.13" departLane="best" from="5675271#3" id="veh514" to="450610492#23" type="veh_passenger" />
    <trip depart="223.56" departLane="best" from="5675573#7" id="veh515" to="420318579" type="veh_passenger" />
    <trip depart="223.99" departLane="best" from="5676994#5" id="veh516" to="432552971" type="veh_passenger" />
    <trip depart="225.73" departLane="best" from="420571183" id="veh520" to="40174799" type="veh_passenger" />
    <trip depart="226.16" departLane="best" from="591821087" id="veh521" to="-300338876#1" type="veh_passenger" />
    <trip depart="228.33" departLane="best" from="-232270198#2" id="veh526" to="221586638#12" type="veh_passenger" />
    <trip depart="228.77" departLane="best" from="46818904#14" id="veh527" to="460585584#0" type="veh_passenger" />
    <trip depart="229.20" departLane="best" from="221597280#6" id="veh528" to="68523760#0" type="veh_passenger" />
    <trip depart="233.54" departLane="best" from="222248830#1" id="veh538" to="-5677698" type="veh_passenger" />
    <trip depart="234.41" departLane="best" from="5678366#0" id="veh540" to="-432554456#0" type="veh_passenger" />
    <trip depart="235.71" departLane="best" from="460585584#2" id="veh543" to="46121868" type="veh_passenger" />
    <trip depart="236.15" departLane="best" from="221604537#0" id="veh544" to="-46865764#0" type="veh_passenger" />
    <trip depart="237.02" departLane="best" from="5675915#6" id="veh546" to="5680039" type="veh_passenger" />
    <trip depart="237.45" departLane="best" from="525679230#4" id="veh547" to="601732568#1" type="veh_passenger" />
    <trip depart="239.19" departLane="best" from="-420875713#0" id="veh551" to="5679471" type="veh_passenger" />
    <trip depart="240.92" departLane="best" from="5678147#3" id="veh555" to="46835336#27" type="veh_passenger" />
    <trip depart="241.79" departLane="best" from="5681383#12" id="veh557" to="5678784#1" type="veh_passenger" />
    <trip depart="242.66" departLane="best" from="497257603#10" id="veh559" to="221759322#0" type="veh_passenger" />
    <trip depart="244.83" departLane="best" from="5675586" id="veh564" to="110155732" type="veh_passenger" />
    <trip depart="245.70" departLane="best" from="222246540#2" id="veh566" to="5675157#1" type="veh_passenger" />
    <trip depart="247.00" departLane="best" from="-46863774#2" id="veh569" to="46835346" type="veh_passenger" />
    <trip depart="247.87" departLane="best" from="46863691#3" id="veh571" to="420346490#3" type="veh_passenger" />
    <trip depart="249.17" departLane="best" from="275355374" id="veh574" to="221601322#14" type="veh_passenger" />
    <trip depart="250.04" departLane="best" from="46863844#8" id="veh576" to="-227064556#3" type="veh_passenger" />
    <trip depart="250.91" departLane="best" from="-154513049#1" id="veh578" to="221753936#3" type="veh_passenger" />
    <trip depart="251.34" departLane="best" from="-5679472" id="veh579" to="-525679230#5" type="veh_passenger" />
    <trip depart="252.21" departLane="best" from="-154513049#2" id="veh581" to="5676690#2" type="veh_passenger" />
    <trip depart="253.08" departLane="best" from="497257603#5" id="veh583" to="420883007#1" type="veh_passenger" />
    <trip depart="253.95" departLane="best" from="-239626766" id="veh585" to="5679892#4" type="veh_passenger" />
    <trip depart="254.81" departLane="best" from="5681030#7" id="veh587" to="5679892#7" type="veh_passenger" />
    <trip depart="255.68" departLane="best" from="497260896#1" id="veh589" to="295384096#2" type="veh_passenger" />
    <trip depart="256.55" departLane="best" from="221597280#3" id="veh591" to="5678115#3" type="veh_passenger" />
    <trip depart="256.98" departLane="best" from="46788753#4" id="veh592" to="5678784#24" type="veh_passenger" />
    <trip depart="257.85" departLane="best" from="5678756#0" id="veh594" to="183916221#1" type="veh_passenger" />
    <trip depart="258.29" departLane="best" from="460779250#0" id="veh595" to="447792828#6" type="veh_passenger" />
    <trip depart="259.16" departLane="best" from="221696386#4" id="veh597" to="222254952#0" type="veh_passenger" />
    <trip depart="259.59" departLane="best" from="-497253772" id="veh598" to="43242499#1" type="veh_passenger" />
    <trip depart="260.46" departLane="best" from="5680703#0" id="veh600" to="227064537#1" type="veh_passenger" />
    <trip depart="263.50" departLane="best" from="5676234#9" id="veh607" to="5677037#21" type="veh_passenger" />
    <trip depart="263.93" departLane="best" from="295384457#0" id="veh608" to="5681544#1" type="veh_passenger" />
    <trip depart="265.67" departLane="best" from="-232270200#4" id="veh612" to="360608776" type="veh_passenger" />
    <trip depart="266.53" departLane="best" from="-227074776#0" id="veh614" to="421121612" type="veh_passenger" />
    <trip depart="267.40" departLane="best" from="-227074781#0" id="veh616" to="5678784#22" type="veh_passenger" />
    <trip depart="267.84" departLane="best" from="-275303244" id="veh617" to="5679904#5" type="veh_passenger" />
    <trip depart="268.71" departLane="best" from="420319832#11" id="veh619" to="40711968#1" type="veh_passenger" />
    <trip depart="269.57" departLane="best" from="5680442#1" id="veh621" to="37602216#3" type="veh_passenger" />
    <trip depart="270.88" departLane="best" from="-46818904#13" id="veh624" to="-308340267#6" type="veh_passenger" />
    <trip depart="271.31" departLane="best" from="-420567581" id="veh625" to="5680812#0" type="veh_passenger" />
    <trip depart="272.18" departLane="best" from="420315112" id="veh627" to="-5679879" type="veh_passenger" />
    <trip depart="273.91" departLane="best" from="151471702#0" id="veh631" to="276055771" type="veh_passenger" />
    <trip depart="275.65" departLane="best" from="475559459#6" id="veh635" to="221601322#5" type="veh_passenger" />
    <trip depart="276.09" departLane="best" from="530568994" id="veh636" to="479748557#4" type="veh_passenger" />
    <trip depart="276.52" departLane="best" from="5680703#3" id="veh637" to="5680159#9" type="veh_passenger" />
    <trip depart="277.39" departLane="best" from="-46772625#4" id="veh639" to="227064540#1" type="veh_passenger" />
    <trip depart="279.12" departLane="best" from="222254951#1" id="veh643" to="5677945#1" type="veh_passenger" />