<routes xmlns:xsi="http://www.w3.org/2001/XMLSchema-instance" xsi:noNamespaceSchemaLocation="http://sumo.dlr.de/xsd/routes_file.xsd">
    <vType id="moto_motorcycle" vClass="motorcycle">
    </vType>
    <trip depart="0.68" departLane="best" from="451910413#0" id="moto1" to="221585908#5" type="moto_motorcycle" />
    <trip depart="2.73" departLane="best" from="5679904#5" id="moto4" to="221585908#5" type="moto_motorcycle" />
    <trip depart="3.41" departLane="best" from="5680024#12" id="moto5" to="5678784#10" type="moto_motorcycle" />
    <trip depart="7.50" departLane="best" from="432552980#1" id="moto11" to="5676690#1" type="moto_motorcycle" />
    <trip depart="8.87" departLane="best" from="46179211#3" id="moto13" to="495315400" type="moto_motorcycle" />
    <trip depart="10.23" departLane="best" from="5678215#1" id="moto15" to="221725601#0" type="moto_motorcycle" />
    <trip depart="12.28" departLane="best" from="545291572#0" id="moto18" to="221759330#1" type="moto_motorcycle" />
    <trip depart="13.64" departLane="best" from="221586638#5" id="moto20" to="276050436" type="moto_motorcycle" />
    <trip depart="14.33" departLane="best" from="46819899" id="moto21" to="222258266#2" type="moto_motorcycle" />
    <trip depart="15.69" departLane="best" from="-420882994" id="moto23" to="324751028" type="moto_motorcycle" />
    <trip depart="16.37" departLane="best" from="-78288188#0" id="moto24" to="46863648#3" type="moto_motorcycle" />
    <trip depart="17.05" departLane="best" from="5676800" id="moto25" to="440498211" type="moto_motorcycle" />
    <trip depart="18.42" departLane="best" from="227074790#0" id="moto27" to="46121857" type="moto_motorcycle" />
    <trip depart="21.15" departLane="best" from="-497257603#9" id="moto31" to="46818904#15" type="moto_motorcycle" />
    <trip depart="21.83" departLane="best" from="524340776#10" id="moto32" to="-420318559" type="moto_motorcycle" />
    <trip depart="23.19" departLane="best" from="497258437#0" id="moto34" to="221586638#5" type="moto_motorcycle" />
    <trip depart="25.92" departLane="best" from="46137556" id="moto38" to="221694583#1" type="moto_motorcycle" />
    <trip depart="27.97" departLane="best" from="524345883-AddedOffRampEdge" id="moto41" to="421120404" type="moto_motorcycle" />
    <trip depart="29.33" departLane="best" from="654744279" id="moto43" to="420626018" type="moto_motorcycle" />
    <trip depart="30.01" departLane="best" from="530569001#5" id="moto44" to="276083330#1" type="moto_motorcycle" />
    <trip depart="30.70" departLane="best" from="46863669" id="moto45" to="-5676939#3" type="moto_motorcycle" />
    <trip depart="32.06" departLane="best" from="5675963#0" id="moto47" to="347014804#3" type="moto_motorcycle" />
    <trip depart="33.43" departLane="best" from="221759329" id="moto49" to="46786525" type="moto_motorcycle" />
    <trip depart="34.11" departLane="best" from="107391104#21" id="moto50" to="5679437#2" type="moto_motorcycle" />
    <trip depart="34.79" departLane="best" from="154513057" id="moto51" to="46121872" type="moto_motorcycle" />
    <trip depart="35.47" departLane="best" from="46835336#13" id="moto52" to="46835346" type="moto_motorcycle" />
    <trip depart="37.52" departLane="best" from="46863851#0" id="moto55" to="46863840#1" type="moto_motorcycle" />
    <trip depart="38.20" departLane="best" from="-460126495#0" id="moto56" to="46121861" type="moto_motorcycle" />
    <trip depart="38.88" departLane="best" from="420875709#1" id="moto57" to="39974314" type="moto_motorcycle" />
    <trip depart="39.56" departLane="best" from="587355787#2" id="moto58" to="-25198746#1" type="moto_motorcycle" />
    <trip depart="40.25" departLane="best" from="421116794" id="moto59" to="38341527#0" type="moto_motorcycle" />
    <trip depart="41.61" departLane="best" from="46121844#1" id="moto61" to="46121848#4" type="moto_motorcycle" />
    <trip depart="42.29" departLane="best" from="460584837#10" id="moto62" to="107391104#18" type="moto_motorcycle" />
    <trip depart="43.66" departLane="best" from="479748557#13" id="moto64" to="221585917#0" type="moto_motorcycle" />
    <trip depart="44.34" departLane="best" from="227074794#2" id="moto65" to="46818452#1-AddedOnRampEdge" type="moto_motorcycle" />
    <trip depart="45.02" departLane="best" from="5678784#11" id="moto66" to="183916203#2" type="moto_motorcycle" />
    <trip depart="45.70" departLane="best" from="321542908" id="moto67" to="5681383#8" type="moto_motorcycle" />
    <trip depart="46.39" departLane="best" from="221585915" id="moto68" to="221585918#9" type="moto_motorcycle" />
    <trip depart="47.07" departLane="best" from="420346486#1" id="moto69" to="40416346#1" type="moto_motorcycle" />
    <trip depart="51.16" departLane="best" from="5677949#9" id="moto75" to="41246540" type="moto_motorcycle" />
    <trip depart="51.84" departLane="best" from="608794060#0" id="moto76" to="5678366#6" type="moto_motorcycle" />
    <trip depart="52.53" departLane="best" from="221777109#10" id="moto77" to="-221688754#3" type="moto_motorcycle" />
    <trip depart="53.21" departLane="best" from="-350687715#1" id="moto78" to="221570521#5" type="moto_motorcycle" />
    <trip depart="53.89" departLane="best" from="542169856#8" id="moto79" to="450610492#12" type="moto_motorcycle" />
    <trip depart="54.57" departLane="best" from="5680703#7" id="moto80" to="46817511#1" type="moto_motorcycle" />
    <trip depart="55.25" departLane="best" from="-658936644#16" id="moto81" to="-526209963#1" type="moto_motorcycle" />
    <trip depart="57.30" departLane="best" from="5674356" id="moto84" to="46835368#2" type="moto_motorcycle" />
    <trip depart="57.98" departLane="best" from="34593472#3" id="moto85" to="221696378#1" type="moto_motorcycle" />
    <trip depart="59.35" departLane="best" from="222258266#1" id="moto87" to="239626766" type="moto_motorcycle" />
    <trip depart="60.03" departLane="best" from="107391104#18" id="moto88" to="-46772625#1" type="moto_motorcycle" />
    <trip depart="62.08" departLane="best" from="-38341527#0" id="moto91" to="221759321#2" type="moto_motorcycle" />
    <trip depart="64.80" departLane="best" from="639118784#1" id="moto95" to="-471943031#3" type="moto_motorcycle" />
    <trip depart="65.49" departLane="best" from="-46772625#3" id="moto96" to="222251427" type="moto_motorcycle" />
    <trip depart="66.17" departLane="best" from="221753947" id="moto97" to="5678753" type="moto_motorcycle" />
    <trip depart="66.85" departLane="best" from="5677585#4" id="moto98" to="5675523" type="moto_motorcycle" />
    <trip depart="67.53" departLane="best" from="460584836#1" id="moto99" to="5674854" type="moto_motorcycle" />
    <trip depart="68.90" departLane="best" from="221696381#0" id="moto101" to="483704094#10" type="moto_motorcycle" />
    <trip depart="69.58" departLane="best" from="221602120" id="moto102" to="227064534#5" type="moto_motorcycle" />
    <trip depart="70.26" departLane="best" from="524340771#4" id="moto103" to="227064523#5" type="moto_motorcycle" />
    <trip depart="70.94" departLane="best" from="-227064558" id="moto104" to="278135786" type="moto_motorcycle" />
    <trip depart="71.63" departLane="best" from="5680880#3" id="moto105" to="-5679875#1" type="moto_motorcycle" />
    <trip depart="73.67" departLane="best" from="5676353#1" id="moto108" to="573626193" type="moto_motorcycle" />
    <trip depart="74.35" departLane="best" from="496984337" id="moto109" to="-288862241#2" type="moto_motorcycle" />
    <trip depart="76.40" departLane="best" from="227074799#1" id="moto112" to="5678366#3" type="moto_motorcycle" />
    <trip depart="77.77" departLane="best" from="68523754#2" id="moto114" to="239626766" type="moto_motorcycle" />
    <trip depart="78.45" departLane="best" from="-221585916#7" id="moto115" to="221725598#5" type="moto_motorcycle" />
    <trip depart="79.13" departLane="best" from="464137214#7" id="moto116" to="493933673#1" type="moto_motorcycle" />
    <trip depart="81.18" departLane="best" from="-661684796" id="moto119" to="-654744285#3" type="moto_motorcycle" />
    <trip depart="85.27" departLane="best" from="-497561531#0" id="moto125" to="5674349" type="moto_motorcycle" />
    <trip depart="85.95" departLane="best" from="227064513#3" id="moto126" to="46835336#27" type="moto_motorcycle" />
    <trip depart="88.00" departLane="best" from="-524340771#7" id="moto129" to="420880051#1" type="moto_motorcycle" />
    <trip depart="88.68" departLane="best" from="-420318571" id="moto130" to="450610492#15" type="moto_motorcycle" />
    <trip depart="89.36" departLane="best" from="-222246538#2" id="moto131" to="107391104#1" type="moto_motorcycle" />
    <trip depart="90.04" departLane="best" from="-288862241#0" id="moto132" to="5681491#2" type="moto_motorcycle" />
    <trip depart="90.73" departLane="best" from="5680549" id="moto133" to="46121853#1" type="moto_motorcycle" />
    <trip depart="91.41" departLane="best" from="450610492#20" id="moto134" to="276050435#2" type="moto_motorcycle" />
    <trip depart="92.09" departLane="best" from="221583067" id="moto135" to="250372840#5" type="moto_motorcycle" />
    <trip depart="94.14" departLane="best" from="658936639#0" id="moto138" to="495491358#2" type="moto_motorcycle" />
    <trip depart="94.82" departLane="best" from="308340267#7" id="moto139" to="25564006#1" type="moto_motorcycle" />
    <trip depart="95.50" departLane="best" from="5678889#1" id="moto140" to="46865764#5" type="moto_motorcycle" />
    <trip depart="96.87" departLane="best" from="-37793000#0" id="moto142" to="-494221659#4" type="moto_motorcycle" />
    <trip depart="99.59" departLane="best" from="420346478#0" id="moto146" to="420584903#0" type="moto_motorcycle" />
    <trip depart="100.96" departLane="best" from="46121850#0" id="moto148" to="227064535#7" type="moto_motorcycle" />
    <trip depart="103.00" departLane="best" from="451915589" id="moto151" to="420346488#2" type="moto_motorcycle" />
    <trip depart="105.05" departLane="best" from="-239626769#2" id="moto154" to="239626767#1" type="moto_motorcycle" />
    <trip depart="105.73" departLane="best" from="221597280#9" id="moto155" to="5680361#1" type="moto_motorcycle" />
    <trip depart="107.10" departLane="best" from="489437292#5" id="moto157" to="5679854#12" type="moto_motorcycle" />
    <trip depart="107.78" departLane="best" from="-5679720" id="moto158" to="5678233#1" type="moto_motorcycle" />
    <trip depart="108.46" departLane="best" from="421755067#1" id="moto159" to="25564005" type="moto_motorcycle" />
    <trip depart="109.14" departLane="best" from="46820403#0" id="moto160" to="5678784#26" type="moto_motorcycle" />
    <trip depart="110.51" departLane="best" from="221586638#5" id="moto162" to="5676437" type="moto_motorcycle" />
    <trip depart="111.19" departLane="best" from="-46835364" id="moto163" to="5681691#3" type="moto_motorcycle" />
    <trip depart="111.87" departLane="best" from="5677949#10" id="moto164" to="654744285#2" type="moto_motorcycle" />
    <trip depart="112.55" departLane="best" from="420304910#0" id="moto165" to="5677211" type="moto_motorcycle" />
    <trip depart="113.24" departLane="best" from="41381890#2" id="moto166" to="-239626769#0" type="moto_motorcycle" />
    <trip depart="113.92" departLane="best" from="-420346445" id="moto167" to="-494221659#1" type="moto_motorcycle" />
    <trip depart="115.28" departLane="best" from="221586638#10" id="moto169" to="221585914#0" type="moto_motorcycle" />
    <trip depart="117.33" departLane="best" from="221585907#1" id="moto172" to="276145117#1" type="moto_motorcycle" />
    <trip depart="118.01" departLane="best" from="-5679171#12" id="moto173" to="5680442#5" type="moto_motorcycle" />
    <trip depart="118.69" departLane="best" from="5677926#1" id="moto174" to="5677949#22" type="moto_motorcycle" />
    <trip depart="119.38" departLane="best" from="40416338#1" id="moto175" to="5680996" type="moto_motorcycle" />
    <trip depart="120.74" departLane="best" from="5676803#3" id="moto177" to="97010425#0" type="moto_motorcycle" />
    <trip depart="121.42" departLane="best" from="-5678246#7" id="moto178" to="672080271" type="moto_motorcycle" />
    <trip depart="122.11" departLane="best" from="497149598#0" id="moto179" to="5681578" type="moto_motorcycle" />
    <trip depart="122.79" departLane="best" from="5677340#3" id="moto180" to="122625689" type="moto_motorcycle" />
    <trip depart="123.47" departLane="best" from="227074781#8" id="moto181" to="68523760#0" type="moto_motorcycle" />
    <trip depart="124.83" departLane="best" from="107391104#17" id="moto183" to="-37195087#1" type="moto_motorcycle" />
    <trip depart="125.52" departLane="best" from="-420583307#0" id="moto184" to="420319835#1" type="moto_motorcycle" />
    <trip depart="126.20" departLane="best" from="221585907#0" id="moto185" to="221777109#11" type="moto_motorcycle" />
    <trip depart="126.88" departLane="best" from="222258278" id="moto186" to="37394899#1" type="moto_motorcycle" />
    <trip depart="127.56" departLane="best" from="46865768#1" id="moto187" to="-420880040" type="moto_motorcycle" />
    <trip depart="131.66" departLane="best" from="5676656#4" id="moto193" to="5679930" type="moto_motorcycle" />
    <trip depart="132.34" departLane="best" from="420346477#0" id="moto194" to="46846378#1" type="moto_motorcycle" />
    <trip depart="133.02" departLane="best" from="-497253779" id="moto195" to="5680703#8" type="moto_motorcycle" />
    <trip depart="134.38" departLane="best" from="227064523#4" id="moto197" to="227064534#5" type="moto_motorcycle" />
    <trip depart="135.07" departLane="best" from="275303281" id="moto198" to="250372840#7" type="moto_motorcycle" />
    <trip depart="135.75" departLane="best" from="421752007" id="moto199" to="5677585#1" type="moto_motorcycle" />
    <trip depart="137.11" departLane="best" from="46818902#1" id="moto201" to="206610786#4" type="moto_motorcycle" />
    <trip depart="137.79" departLane="best" from="497149598#0" id="moto202" to="227064522#2" type="moto_motorcycle" />
    <trip depart="139.84" departLane="best" from="421752007" id="moto205" to="-227074776#3" type="moto_motorcycle" />
    <trip depart="140.52" departLane="best" from="68523765#5" id="moto206" to="483704094#1" type="moto_motorcycle" />
    <trip depart="141.21" departLane="best" from="-5679420" id="moto207" to="524345883-AddedOffRampEdge" type="moto_motorcycle" />
    <trip depart="142.57" departLane="best" from="221597280#6" id="moto209" to="5676262#8" type="moto_motorcycle" />
    <trip depart="144.62" departLane="best" from="5677818#4" id="moto212" to="46865765#0" type="moto_motorcycle" />
    <trip depart="145.98" departLane="best" from="5678574" id="moto214" to="461075409#0" type="moto_motorcycle" />
    <trip depart="146.66" departLane="best" from="5679854#4" id="moto215" to="-420304938" type="moto_motorcycle" />
    <trip depart="148.03" departLane="best" from="524340776#7" id="moto217" to="-46772625#4" type="moto_motorcycle" />
    <trip depart="149.39" departLane="best" from="-46788749#1" id="moto219" to="545291578#1-AddedOffRampEdge" type="moto_motorcycle" />
    <trip depart="150.76" departLane="best" from="5676994#17" id="moto221" to="37602216#2" type="moto_motorcycle" />
    <trip depart="151.44" departLane="best" from="-464137214#9" id="moto222" to="420880042#1" type="moto_motorcycle" />
    <trip depart="152.12" departLane="best" from="5675992" id="moto223" to="221725598#8" type="moto_motorcycle" />
    <trip depart="156.21" departLane="best" from="497259892#3" id="moto229" to="46865764#3" type="moto_motorcycle" />
    <trip depart="156.89" departLane="best" from="46774534#1" id="moto230" to="5677397#9" type="moto_motorcycle" />
    <trip depart="157.58" departLane="best" from="420571192" id="moto231" to="232270200#4" type="moto_motorcycle" />
    <trip depart="163.03" departLane="best" from="5678442#18" id="moto239" to="-587067529#0" type="moto_motorcycle" />
    <trip depart="163.72" departLane="best" from="-5677270" id="moto240" to="5678101#10" type="moto_motorcycle" />
    <trip depart="165.08" departLane="best" from="221585918#0" id="moto242" to="46786493" type="moto_motorcycle" />
    <trip depart="168.49" departLane="best" from="-222254955" id="moto247" to="654744274#6" type="moto_motorcycle" />
    <trip depart="169.17" departLane="best" from="5680742#2" id="moto248" to="432552976" type="moto_motorcycle" />
    <trip depart="169.86" departLane="best" from="222247159" id="moto249" to="552015559#0" type="moto_motorcycle" />
    <trip depart="170.54" departLane="best" from="464255710" id="moto250" to="46121853#2" type="moto_motorcycle" />
    <trip depart="171.22" departLane="best" from="68523754#1" id="moto251" to="5680024#1" type="moto_motorcycle" />
    <trip depart="171.90" departLane="best" from="-421149636#0" id="moto252" to="-654744274#6" type="moto_motorcycle" />
    <trip depart="172.58" departLane="best" from="110161764#1" id="moto253" to="221759318#3" type="moto_motorcycle" />
    <trip depart="173.27" departLane="best" from="5674866" id="moto254" to="5679759" type="moto_motorcycle" />
    <trip depart="175.31" departLane="best" from="38341527#2" id="moto257" to="227064556#2" type="moto_motorcycle" />
    <trip depart="176.68" departLane="best" from="-420882994" id="moto259" to="5681248#0" type="moto_motorcycle" />
    <trip depart="177.36" departLane="best" from="479748557#9" id="moto260" to="483704094#17" type="moto_motorcycle" />
    <trip depart="178.04" departLane="best" from="641437649" id="moto261" to="515885162#5" type="moto_motorcycle" />
    <trip depart="179.41" departLane="best" from="440633404#7" id="moto263" to="183103118#1" type="moto_motorcycle" />
    <trip depart="180.09" departLane="best" from="222254955" id="moto264" to="420880042#0" type="moto_motorcycle" />
    <trip depart="181.45" departLane="best" from="227002831#2" id="moto266" to="5679758#3" type="moto_motorcycle" />
    <trip depart="182.13" departLane="best" from="-227074786#2" id="moto267" to="5678262#7" type="moto_motorcycle" />
    <trip depart="182.82" departLane="best" from="222246978" id="moto268" to="46121844#0" type="moto_motorcycle" />
    <trip depart="184.18" departLane="best" from="-5678101#13" id="moto270" to="-221585918#4" type="moto_motorcycle" />
    <trip depart="184.86" departLane="best" from="542169859" id="moto271" to="483704094#1" type="moto_motorcycle" />
    <trip depart="186.23" departLane="best" from="420880048" id="moto273" to="46863691#6" type="moto_motorcycle" />
    <trip depart="187.59" departLane="best" from="5678784#5" id="moto275" to="227064522#0" type="moto_motorcycle" />
    <trip depart="188.27" departLane="best" from="37394899#1" id="moto276" to="-154513056" type="moto_motorcycle" />
    <trip depart="188.96" departLane="best" from="227074781#15" id="moto277" to="23334061#3" type="moto_motorcycle" />
    <trip depart="189.64" departLane="best" from="46835336#15" id="moto278" to="46835336#27" type="moto_motorcycle" />
    <trip depart="190.32" departLane="best" from="5676852#4" id="moto279" to="206610786#5" type="moto_motorcycle" />
    <trip depart="195.10" departLane="best" from="-483140980#0" id="moto286" to="78288188#2" type="moto_motorcycle" />
    <trip depart="195.78" departLane="best" from="221696379" id="moto287" to="23113651#2" type="moto_motorcycle" />
    <trip depart="196.46" departLane="best" from="5676800" id="moto288" to="5681544#0" type="moto_motorcycle" />
    <trip depart="197.82" departLane="best" from="68523760#1" id="moto290" to="221753936#0" type="moto_motorcycle" />
    <trip depart="198.51" departLane="best" from="308340267#6" id="moto291" to="46817493#2" type="moto_motorcycle" />
    <trip depart="201.23" departLane="best" from="46817493#2" id="moto295" to="5676159#2" type="moto_motorcycle" />
    <trip depart="202.60" departLane="best" from="475559459#2" id="moto297" to="315569175#2" type="moto_motorcycle" />
    <trip depart="203.96" departLane="best" from="221759333#1" id="moto299" to="227064552" type="moto_motorcycle" />
    <trip depart="204.65" departLane="best" from="641915866#3" id="moto300" to="420883003" type="moto_motorcycle" />
    <trip depart="205.33" departLane="best" from="450610492#21" id="moto301" to="221597280#11" type="moto_motorcycle" />
    <trip depart="206.01" departLane="best" from="227064552" id="moto302" to="587067526#2" type="moto_motorcycle" />
    <trip depart="206.69" departLane="best" from="5680800" id="moto303" to="222246979" type="moto_motorcycle" />
    <trip depart="207.37" departLane="best" from="5677818#5" id="moto304" to="5679887#3" type="moto_motorcycle" />
    <trip depart="208.74" departLane="best" from="-432554456#1" id="moto306" to="221777100#8" type="moto_motorcycle" />
    <trip depart="209.42" departLane="best" from="-46772625#6" id="moto307" to="-587067526#1" type="moto_motorcycle" />
    <trip depart="210.10" departLane="best" from="5678278" id="moto308" to="40416340#0" type="moto_motorcycle" />
    <trip depart="210.78" departLane="best" from="5680742#15" id="moto309" to="5677949#5" type="moto_motorcycle" />
    <trip depart="211.47" departLane="best" from="-46835364" id="moto310" to="5680024#4" type="moto_motorcycle" />
    <trip depart="212.15" departLane="best" from="440633404#0" id="moto311" to="46835342#1" type="moto_motorcycle" />
    <trip depart="212.83" departLane="best" from="5681491#2" id="moto312" to="-432552970#0" type="moto_motorcycle" />
    <trip depart="213.51" departLane="best" from="-46121848#5" id="moto313" to="46121848#5" type="moto_motorcycle" />
    <trip depart="214.20" departLane="best" from="-432554456#1" id="moto314" to="5679548#0" type="moto_motorcycle" />
    <trip depart="214.88" departLane="best" from="489437292#10" id="moto315" to="5678101#1" type="moto_motorcycle" />
    <trip depart="215.56" departLane="best" from="-639763613#0" id="moto316" to="37977793" type="moto_motorcycle" />
    <trip depart="217.61" departLane="best" from="-68325083#2" id="moto319" to="-39612790#0" type="moto_motorcycle" />
    <trip depart="218.29" departLane="best" from="5678442#25" id="moto320" to="51980526#0" type="moto_motorcycle" />
    <trip depart="219.65" departLane="best" from="488941121#7" id="moto322" to="535252372#3" type="moto_motorcycle" />
    <trip depart="220.33" departLane="best" from="46838311" id="moto323" to="5677945#1" type="moto_motorcycle" />
    <trip depart="221.02" departLane="best" from="5677157#0" id="moto324" to="347014806#0" type="moto_motorcycle" />
    <trip depart="221.70" departLane="best" from="46137500" id="moto325" to="40709908#0" type="moto_motorcycle" />
    <trip depart="222.38" departLane="best" from="-239626766" id="moto326" to="-46121853#2" type="moto_motorcycle" />
    <trip depart="223.75" departLane="best" from="5679708#16" id="moto328" to="5679904#2" type="moto_motorcycle" />
    <trip depart="225.11" departLane="best" from="227074765#0" id="moto330" to="5681384" type="moto_motorcycle" />
    <trip depart="225.79" departLane="best" from="222246285#0" id="moto331" to="-5680972#1" type="moto_motorcycle" />
    <trip depart="226.47" departLane="best" from="5678784#23" id="moto332" to="183103091#1" type="moto_motorcycle" />
    <trip depart="227.84" departLane="best" from="658936639#0" id="moto334" to="658936639#0" type="moto_motorcycle" />
    <trip depart="228.52" departLane="best" from="5677037#26" id="moto335" to="40712688#1" type="moto_motorcycle" />
    <trip depart="229.20" departLane="best" from="-227064558" id="moto336" to="227064520#2" type="moto_motorcycle" />
    <trip depart="229.88" departLane="best" from="420571183" id="moto337" to="41381890#0" type="moto_motorcycle" />
    <trip depart="231.93" departLane="best" from="-5680631#8" id="moto340" to="5675963#5" type="moto_motorcycle" />
    <trip depart="232.61" departLane="best" from="-409285510#1" id="moto341" to="5682095#2" type="moto_motorcycle" />
    <trip depart="233.30" departLane="best" from="46863753" id="moto342" to="5678784#6" type="moto_motorcycle" />
    <trip depart="233.98" departLane="best" from="46863691#5" id="moto343" to="5680800" type="moto_motorcycle" />
    <trip depart="234.66" departLane="best" from="276024637#30" id="moto344" to="5680852" type="moto_motorcycle" />
    <trip depart="236.02" departLane="best" from="409285510#0" id="moto346" to="347309380#0" type="moto_motorcycle" />
    <trip depart="238.07" departLane="best" from="5677949#10" id="moto349" to="334341973#0" type="moto_motorcycle" />
    <trip depart="240.80" departLane="best" from="46835336#8" id="moto353" to="440633404#3" type="moto_motorcycle" />
    <trip depart="242.16" departLane="best" from="46835336#21" id="moto355" to="46819497" type="moto_motorcycle" />
    <trip depart="244.21" departLane="best" from="654744274#4" id="moto358" to="-222248832#1" type="moto_motorcycle" />
    <trip depart="245.57" departLane="best" from="221585908#1" id="moto360" to="46865764#3" type="moto_motorcycle" />
    <trip depart="246.26" departLane="best" from="226933462#0" id="moto361" to="40711969" type="moto_motorcycle" />
    <trip depart="248.99" departLane="best" from="5677818#4" id="moto365" to="5705730" type="moto_motorcycle" />
    <trip depart="249.67" departLane="best" from="46835355#1" id="moto366" to="221694584" type="moto_motorcycle" />
    <trip depart="250.35" departLane="best" from="497256110#1" id="moto367" to="5679171#10" type="moto_motorcycle" />
    <trip depart="251.03" departLane="best" from="-497257603#1" id="moto368" to="5681383#8" type="moto_motorcycle" />
    <trip depart="251.71" departLane="best" from="-221777100#5" id="moto369" to="221777100#15" type="moto_motorcycle" />
    <trip depart="252.40" departLane="best" from="-46818904#1" id="moto370" to="39974314" type="moto_motorcycle" />
    <trip depart="253.08" departLane="best" from="221725599#1" id="moto371" to="530568988#0" type="moto_motorcycle" />
    <trip depart="253.76" departLane="best" from="37602216#1" id="moto372" to="221688252" type="moto_motorcycle" />
    <trip depart="255.12" departLane="best" from="-227074781#9" id="moto374" to="221777109#17" type="moto_motorcycle" />
    <trip depart="255.81" departLane="best" from="222246286#2" id="moto375" to="221688252" type="moto_motorcycle" />
    <trip depart="256.49" departLane="best" from="-5678101#1" id="moto376" to="-432552979#0" type="moto_motorcycle" />
    <trip depart="259.22" departLane="best" from="-5707635#3" id="moto380" to="5679786" type="moto_motorcycle" />
    <trip depart="261.95" departLane="best" from="154513056" id="moto384" to="5677896" type="moto_motorcycle" />
    <trip depart="263.31" departLane="best" from="227064556#1" id="moto386" to="221759333#1" type="moto_motorcycle" />
    <trip depart="264.67" departLane="best" from="-464137214#9" id="moto388" to="542169861#0" type="moto_motorcycle" />
    <trip depart="265.36" departLane="best" from="479748557#5" id="moto389" to="479748559#0" type="moto_motorcycle" />
    <trip depart="266.72" departLane="best" from="-420572566" id="moto391" to="495315400" type="moto_motorcycle" />
    <trip depart="269.45" departLane="best" from="-5675937" id="moto395" to="5679708#9" type="moto_motorcycle" />
    <trip depart="270.13" departLane="best" from="587355787#0" id="moto396" to="420346490#2" type="moto_motorcycle" />
    <trip depart="271.50" departLane="best" from="46863798" id="moto398" to="-421152075" type="moto_motorcycle" />
    <trip depart="272.86" departLane="best" from="486010416" id="moto400" to="587355743" type="moto_motorcycle" />
    <trip depart="273.54" departLane="best" from="450610492#0" id="moto401" to="221759321#2" type="moto_motorcycle" />
    <trip depart="274.22" departLane="best" from="5679790#1" id="moto402" to="5679790#3" type="moto_motorcycle" />
    <trip depart="274.91" departLane="best" from="5680024#3" id="moto403" to="5677112#2" type="moto_motorcycle" />
    <trip depart="275.59" departLane="best" from="46818904#8" id="moto404" to="5677926#5" type="moto_motorcycle" />
    <trip depart="278.32" departLane="best" from="-221586639#2" id="moto408" to="497253772" type="moto_motorcycle" />
    <trip depart="279.68" departLane="best" from="221696377#1" id="moto410" to="-23113651#2" type="moto_motorcycle" />
    <trip depart="280.36" departLane="best" from="489437292#3" id="moto411" to="-5677270" type="moto_motorcycle" />
    <trip depart="285.14" departLane="best" from="-232270198#1" id="moto418" to="34452220#2" type="moto_motorcycle" />
    <trip depart="287.19" departLane="best" from="221759320#31" id="moto421" to="421116785" type="moto_motorcycle" />
    <trip depart="289.91" departLane="best" from="497256597" id="moto425" to="5680551#1" type="moto_motorcycle" />
    <trip depart="291.28" departLane="best" from="475559459#6" id="moto427" to="542169856#4" type="moto_motorcycle" />
    <trip depart="292.64" departLane="best" from="46772625#2" id="moto429" to="276050438" type="moto_motorcycle" />
    <trip depart="293.32" departLane="best" from="-59707790" id="moto430" to="27524495" type="moto_motorcycle" />
    <trip depart="296.05" departLane="best" from="-420569582#0" id="moto434" to="-5678384#1" type="moto_motorcycle" />
    <trip depart="297.42" departLane="best" from="227074781#16" id="moto436" to="221777109#19" type="moto_motorcycle" />
    <trip depart="298.10" departLane="best" from="5676262#10" id="moto437" to="46786511" type="moto_motorcycle" />
    <trip depart="299.46" departLane="best" from="-68523765#5" id="moto439" to="460585585#9" type="moto_motorcycle" />
    <trip depart="300.15" departLane="best" from="625647896#5" id="moto440" to="-111781747#11" type="moto_motorcycle" />
    <trip depart="300.83" departLane="best" from="5675443" id="moto441" to="46121850#1" type="moto_motorcycle" />
    <trip depart="301.51" departLane="best" from="-219964428#7" id="moto442" to="497400544" type="moto_motorcycle" />