<routes xmlns:xsi="http://www.w3.org/2001/XMLSchema-instance" xsi:noNamespaceSchemaLocation="http://sumo.dlr.de/xsd/routes_file.xsd">
    <vType id="truck_truck" vClass="truck">
    </vType>
    <trip depart="0.96" departLane="best" from="219964428#4" id="truck1" to="112168176" type="truck_truck" />
    <trip depart="4.78" departLane="best" from="-587067515" id="truck5" to="420886403" type="truck_truck" />
    <trip depart="10.51" departLane="best" from="221777103" id="truck11" to="-5676937" type="truck_truck" />
    <trip depart="12.42" departLane="best" from="-420346447#2" id="truck13" to="-432552974" type="truck_truck" />
    <trip depart="13.37" departLane="best" from="5678919#0" id="truck14" to="46818463" type="truck_truck" />
    <trip depart="14.33" departLane="best" from="5677950#5" id="truck15" to="5675664#2" type="truck_truck" />
    <trip depart="16.24" departLane="best" from="5678387#2" id="truck17" to="46835336#21" type="truck_truck" />
    <trip depart="18.15" departLane="best" from="500452656#2" id="truck19" to="-227064555#4" type="truck_truck" />
    <trip depart="19.10" departLane="best" from="-636728275" id="truck20" to="221607367" type="truck_truck" />
    <trip depart="21.97" departLane="best" from="46835336#6" id="truck23" to="227074786#15" type="truck_truck" />
    <trip depart="22.92" departLane="best" from="227064531#2" id="truck24" to="-68523760#2" type="truck_truck" />
    <trip depart="25.79" departLane="best" from="-5675937" id="truck27" to="5675610" type="truck_truck" />
    <trip depart="27.70" departLane="best" from="680830803" id="truck29" to="46863691#5" type="truck_truck" />
    <trip depart="34.38" departLane="best" from="5680972#0" id="truck36" to="39974314" type="truck_truck" />
    <trip depart="35.34" departLane="best" from="183103118#0" id="truck37" to="204842637#3" type="truck_truck" />
    <trip depart="36.29" departLane="best" from="451915591#1" id="truck38" to="221585908#5" type="truck_truck" />
    <trip depart="40.11" departLane="best" from="-432552966#2" id="truck42" to="46835362" type="truck_truck" />
    <trip depart="41.07" departLane="best" from="-232270200#0" id="truck43" to="23334091#1" type="truck_truck" />
    <trip depart="42.02" departLane="best" from="68523776-AddedOnRampEdge" id="truck44" to="447792828#3" type="truck_truck" />
    <trip depart="42.98" departLane="best" from="625647896#1" id="truck45" to="5679854#10" type="truck_truck" />
    <trip depart="48.71" departLane="best" from="5679924" id="truck51" to="221585909#1" type="truck_truck" />
    <trip depart="49.66" departLane="best" from="420346486#1" id="truck52" to="-5679924" type="truck_truck" />
    <trip depart="50.62" departLane="best" from="5680880#3" id="truck53" to="5680024#4" type="truck_truck" />
    <trip depart="58.26" departLane="best" from="221602117#1" id="truck61" to="-232270200#2" type="truck_truck" />
    <trip depart="59.21" departLane="best" from="5680024#4" id="truck62" to="5705730" type="truck_truck" />
    <trip depart="61.12" departLane="best" from="5676939#0" id="truck64" to="-46818905#6" type="truck_truck" />
    <trip depart="62.08" departLane="best" from="39956193#2" id="truck65" to="456407470" type="truck_truck" />
    <trip depart="63.03" departLane="best" from="183103118#1" id="truck66" to="5680052#0" type="truck_truck" />
    <trip depart="69.72" departLane="best" from="221777100#1" id="truck73" to="46786508" type="truck_truck" />
    <trip depart="76.40" departLane="best" from="5681678#3" id="truck80" to="46137551#1" type="truck_truck" />
    <trip depart="82.13" departLane="best" from="249968535#0" id="truck86" to="222258278" type="truck_truck" />
    <trip depart="85.00" departLane="best" from="276043635" id="truck89" to="221586639#2" type="truck_truck" />
    <trip depart="85.95" departLane="best" from="122625696" id="truck90" to="5681328" type="truck_truck" />
    <trip depart="86.91" departLane="best" from="334262992#2" id="truck91" to="5679854#13" type="truck_truck" />
    <trip depart="87.86" departLane="best" from="450610492#24" id="truck92" to="-227074781#13" type="truck_truck" />
    <trip depart="97.41" departLane="best" from="-483140981#1" id="truck102" to="221696386#3" type="truck_truck" />
    <trip depart="99.32" departLane="best" from="440633404#0" id="truck104" to="5676656#5" type="truck_truck" />
    <trip depart="101.23" departLane="best" from="420346499" id="truck106" to="5679708#2" type="truck_truck" />
    <trip depart="104.10" departLane="best" from="464255710" id="truck109" to="494221659#8" type="truck_truck" />
    <trip depart="108.87" departLane="best" from="-5680631#7" id="truck114" to="542169858" type="truck_truck" />
    <trip depart="113.65" departLane="best" from="78288188#3" id="truck119" to="68523772" type="truck_truck" />
    <trip depart="114.60" departLane="best" from="-308340267#1" id="truck120" to="107391104#1" type="truck_truck" />
    <trip depart="115.56" departLane="best" from="5680116#0" id="truck121" to="5680167#12" type="truck_truck" />
    <trip depart="116.51" departLane="best" from="227064529#1" id="truck122" to="-5677459" type="truck_truck" />
    <trip depart="126.06" departLane="best" from="46835336#22" id="truck132" to="221585911#1" type="truck_truck" />
    <trip depart="127.97" departLane="best" from="5678784#7" id="truck134" to="-421149636#0" type="truck_truck" />
    <trip depart="128.93" departLane="best" from="276050433" id="truck135" to="221586638#5" type="truck_truck" />
    <trip depart="131.79" departLane="best" from="5675784#2" id="truck138" to="460569807#3" type="truck_truck" />
    <trip depart="132.75" departLane="best" from="276145112" id="truck139" to="-183916203#2" type="truck_truck" />
    <trip depart="141.34" departLane="best" from="5677150#0" id="truck148" to="5680419#3" type="truck_truck" />
    <trip depart="143.25" departLane="best" from="-483140981#0" id="truck150" to="5681577#2" type="truck_truck" />
    <trip depart="144.21" departLane="best" from="5679765" id="truck151" to="641437649" type="truck_truck" />
    <trip depart="145.16" departLane="best" from="5678101#7" id="truck152" to="5680167#9" type="truck_truck" />
    <trip depart="148.98" departLane="best" from="5678101#6" id="truck156" to="221585914#19" type="truck_truck" />
    <trip depart="150.89" departLane="best" from="-587355778#1" id="truck158" to="5678277#6" type="truck_truck" />
    <trip depart="157.58" departLane="best" from="5681939#0" id="truck165" to="-464255708" type="truck_truck" />
    <trip depart="159.49" departLane="best" from="587355764#0" id="truck167" to="221585914#11" type="truck_truck" />
    <trip depart="161.40" departLane="best" from="5673865" id="truck169" to="221759328#3" type="truck_truck" />
    <trip depart="162.35" departLane="best" from="46788737" id="truck170" to="421123037" type="truck_truck" />
    <trip depart="164.26" departLane="best" from="123001156#2" id="truck172" to="530568998#4" type="truck_truck" />
    <trip depart="165.22" departLane="best" from="-111781747#3" id="truck173" to="5681383#8" type="truck_truck" />
    <trip depart="169.99" departLane="best" from="221696377#0" id="truck178" to="5679471" type="truck_truck" />
    <trip depart="178.59" departLane="best" from="278135787" id="truck187" to="464551540#0" type="truck_truck" />
    <trip depart="180.50" departLane="best" from="324751025" id="truck189" to="107391104#13" type="truck_truck" />
    <trip depart="183.36" departLane="best" from="-39613244#1" id="truck192" to="43242499#6" type="truck_truck" />
    <trip depart="187.18" departLane="best" from="-5680035#0" id="truck196" to="-221586643#0" type="truck_truck" />
    <trip depart="190.05" departLane="best" from="275389083" id="truck199" to="46835368#1" type="truck_truck" />
    <trip depart="191.00" departLane="best" from="-5679171#6" id="truck200" to="511768217" type="truck_truck" />
    <trip depart="191.96" departLane="best" from="420319835#0" id="truck201" to="183916221#1" type="truck_truck" />
    <trip depart="193.87" departLane="best" from="5676353#1" id="truck203" to="5677160#1" type="truck_truck" />
    <trip depart="196.73" departLane="best" from="420880629" id="truck206" to="-227074781#11" type="truck_truck" />
    <trip depart="200.55" departLane="best" from="464551540#1" id="truck210" to="5710128#0" type="truck_truck" />
    <trip depart="202.46" departLane="best" from="530569001#4" id="truck212" to="420884510" type="truck_truck" />
    <trip depart="204.37" departLane="best" from="5680479" id="truck214" to="5676489#11" type="truck_truck" />
    <trip depart="205.33" departLane="best" from="39946177-AddedOffRampEdge" id="truck215" to="221583273#4" type="truck_truck" />
    <trip depart="206.28" departLane="best" from="111781747#4" id="truck216" to="46863648#0" type="truck_truck" />
    <trip depart="208.19" departLane="best" from="46818904#9" id="truck218" to="221585918#7" type="truck_truck" />
    <trip depart="209.15" departLane="best" from="-351479503#1" id="truck219" to="221602117#1" type="truck_truck" />
    <trip depart="210.10" departLane="best" from="206610786#19" id="truck220" to="221777109#14" type="truck_truck" />
    <trip depart="212.01" departLane="best" from="-654744285#5" id="truck222" to="500269690#1" type="truck_truck" />
    <trip depart="216.79" departLane="best" from="46121853#2" id="truck227" to="506650490" type="truck_truck" />
    <trip depart="217.74" departLane="best" from="5679548#0" id="truck228" to="5677037#38" type="truck_truck" />
    <trip depart="220.61" departLane="best" from="276024637#26" id="truck231" to="5676563" type="truck_truck" />
    <trip depart="222.52" departLane="best" from="-587067527#1" id="truck233" to="110161764#0" type="truck_truck" />
    <trip depart="224.43" departLane="best" from="221759328#2" id="truck235" to="495491359#1" type="truck_truck" />
    <trip depart="227.29" departLane="best" from="46818471#0" id="truck238" to="-221696380#0" type="truck_truck" />
    <trip depart="231.11" departLane="best" from="-227064556#2" id="truck242" to="23334061#4" type="truck_truck" />
    <trip depart="233.98" departLane="best" from="5676417#1" id="truck245" to="5678756#8" type="truck_truck" />
    <trip depart="235.89" departLane="best" from="-221585908#5" id="truck247" to="451910413#9" type="truck_truck" />
    <trip depart="238.75" departLane="best" from="46863691#4" id="truck250" to="5676884#1" type="truck_truck" />
    <trip depart="242.57" departLane="best" from="452286946#1" id="truck254" to="108166470" type="truck_truck" />
    <trip depart="260.72" departLane="best" from="515885152#4" id="truck273" to="347014805#4" type="truck_truck" />
    <trip depart="263.58" departLane="best" from="432554453#2" id="truck276" to="420346480#1" type="truck_truck" />
    <trip depart="264.54" departLane="best" from="300338876#0" id="truck277" to="5675784#1" type="truck_truck" />
    <trip depart="266.45" departLane="best" from="5678442#1" id="truck279" to="-420584211" type="truck_truck" />
    <trip depart="269.31" departLane="best" from="227074769#2" id="truck282" to="-221725602#1" type="truck_truck" />
    <trip depart="272.18" departLane="best" from="221777109#0" id="truck285" to="5680167#3" type="truck_truck" />
    <trip depart="274.09" departLane="best" from="-206610786#1" id="truck287" to="5707293#5" type="truck_truck" />
    <trip depart="276.95" departLane="best" from="497193472#0" id="truck290" to="46863844#7" type="truck_truck" />
    <trip depart="285.55" departLane="best" from="-5678262#15" id="truck299" to="107391104#3" type="truck_truck" />
    <trip depart="286.50" departLane="best" from="409285510#1" id="truck300" to="5675157#1" type="truck_truck" />
    <trip depart="290.32" departLane="best" from="432552966#2" id="truck304" to="221585918#5" type="truck_truck" />
    <trip depart="293.19" departLane="best" from="5679854#7" id="truck307" to="420572564" type="truck_truck" />
    <trip depart="295.10" departLane="best" from="37977794#1" id="truck309" to="353256024" type="truck_truck" />
    <trip depart="297.01" departLane="best" from="5682004#1" id="truck311" to="420319832#4" type="truck_truck" />
    <trip depart="298.92" departLane="best" from="-227074776#2" id="truck313" to="-5674502#0" type="truck_truck" />
    <trip depart="300.83" departLane="best" from="68523765#1" id="truck315" to="-46772625#8" type="truck_truck" />
    <trip depart="301.78" departLane="best" from="5677438#24" id="truck316" to="122660423#1" type="truck_truck" />
    <trip depart="304.65" departLane="best" from="680853691" id="truck319" to="221753948#2" type="truck_truck" />
    <trip depart="305.60" departLane="best" from="46818470#0" id="truck320" to="46818904#14" type="truck_truck" />
    <trip depart="317.06" departLane="best" from="276055771" id="truck332" to="451962063" type="truck_truck" />
    <trip depart="327.57" departLane="best" from="-420318561" id="truck343" to="587079728#1" type="truck_truck" />
    <trip depart="329.48" departLane="best" from="5706243" id="truck345" to="97010425#0" type="truck_truck" />
    <trip depart="330.43" departLane="best" from="479748559#1" id="truck346" to="221585914#8" type="truck_truck" />
    <trip depart="332.34" departLane="best" from="38341528#0" id="truck348" to="46865766" type="truck_truck" />
    <trip depart="335.21" departLane="best" from="420319832#11" id="truck351" to="-421118181#0" type="truck_truck" />
    <trip depart="338.07" departLane="best" from="221759318#3" id="truck354" to="500267151#0" type="truck_truck" />
    <trip depart="339.03" departLane="best" from="221585914#1" id="truck355" to="569164780" type="truck_truck" />
    <trip depart="343.80" departLane="best" from="680830264#0" id="truck360" to="479748557#13" type="truck_truck" />
    <trip depart="345.71" departLane="best" from="-5678262#9" id="truck362" to="227074781#14" type="truck_truck" />
    <trip depart="350.49" departLane="best" from="-451915594#1" id="truck367" to="630677037" type="truck_truck" />
    <trip depart="354.31" departLane="best" from="37195087#2" id="truck371" to="-46772625#3" type="truck_truck" />
    <trip depart="357.17" departLane="best" from="219964428#12" id="truck374" to="5678784#19" type="truck_truck" />
    <trip depart="360.04" departLane="best" from="5681171" id="truck377" to="421116792" type="truck_truck" />
    <trip depart="360.99" departLane="best" from="5680037" id="truck378" to="5679892#0" type="truck_truck" />
    <trip depart="361.95" departLane="best" from="219964442#1" id="truck379" to="5677899#1" type="truck_truck" />
    <trip depart="363.86" departLane="best" from="420572567" id="truck381" to="5678387#2" type="truck_truck" />
    <trip depart="367.68" departLane="best" from="432554453#4" id="truck385" to="227064522#1" type="truck_truck" />
    <trip depart="371.50" departLane="best" from="460581660#0" id="truck389" to="148285572#1" type="truck_truck" />
    <trip depart="374.36" departLane="best" from="5678115#0" id="truck392" to="249968535#3" type="truck_truck" />
    <trip depart="375.32" departLane="best" from="471943031#0" id="truck393" to="5678387#3" type="truck_truck" />
    <trip depart="376.27" departLane="best" from="654744285#0" id="truck394" to="420584215" type="truck_truck" />
    <trip depart="377.23" departLane="best" from="-221759328#1" id="truck395" to="420882998" type="truck_truck" />
    <trip depart="379.14" departLane="best" from="5679904#4" id="truck397" to="353256024" type="truck_truck" />
    <trip depart="380.09" departLane="best" from="421118178#1" id="truck398" to="39612790#1" type="truck_truck" />
    <trip depart="384.87" departLane="best" from="5679171#4" id="truck403" to="5679826" type="truck_truck" />
    <trip depart="385.82" departLane="best" from="227074776#1" id="truck404" to="221777100#15" type="truck_truck" />
    <trip depart="387.73" departLane="best" from="5679904#0" id="truck406" to="-221777100#3" type="truck_truck" />
    <trip depart="389.64" departLane="best" from="5681148" id="truck408" to="78288186" type="truck_truck" />
    <trip depart="390.60" departLane="best" from="5676234#1" id="truck409" to="347014804#0" type="truck_truck" />
    <trip depart="392.51" departLane="best" from="497256112" id="truck411" to="5680812#1" type="truck_truck" />
    <trip depart="393.46" departLane="best" from="-222258273#4" id="truck412" to="5677949#25" type="truck_truck" />
    <trip depart="396.33" departLane="best" from="455211317#1" id="truck415" to="5677941#1" type="truck_truck" />
    <trip depart="398.24" departLane="best" from="5679892#0" id="truck417" to="46835336#27" type="truck_truck" />
    <trip depart="400.15" departLane="best" from="-46818904#16" id="truck419" to="40178577#2" type="truck_truck" />
    <trip depart="404.92" departLane="best" from="222246281" id="truck424" to="46786499" type="truck_truck" />
    <trip depart="408.74" departLane="best" from="40879226#3" id="truck428" to="154513049#3" type="truck_truck" />
    <trip depart="409.70" departLane="best" from="68523754#1" id="truck429" to="221696386#1" type="truck_truck" />
    <trip depart="413.52" departLane="best" from="-227064555#0" id="truck433" to="46818470#0" type="truck_truck" />
    <trip depart="415.43" departLane="best" from="221585908#4" id="truck435" to="5677950#4" type="truck_truck" />
    <trip depart="416.38" departLane="best" from="46788742#2" id="truck436" to="227064535#9" type="truck_truck" />
    <trip depart="420.20" departLane="best" from="315569175#3" id="truck440" to="464255710" type="truck_truck" />
    <trip depart="421.16" departLane="best" from="5674866" id="truck441" to="-420880633" type="truck_truck" />
    <trip depart="422.12" departLane="best" from="221585916#9" id="truck442" to="5676563" type="truck_truck" />
    <trip depart="423.07" departLane="best" from="-5677211" id="truck443" to="-46865764#4" type="truck_truck" />
    <trip depart="424.98" departLane="best" from="42786504#0" id="truck445" to="5680996" type="truck_truck" />
    <trip depart="426.89" departLane="best" from="5678277#6" id="truck447" to="420346448#3" type="truck_truck" />
    <trip depart="429.76" departLane="best" from="587355768" id="truck450" to="-497253780#8" type="truck_truck" />
    <trip depart="431.67" departLane="best" from="542169856#7" id="truck452" to="654744274#4" type="truck_truck" />
    <trip depart="432.62" departLane="best" from="618977199#0" id="truck453" to="5678147#11" type="truck_truck" />
    <trip depart="438.35" departLane="best" from="-43242499#6" id="truck459" to="148285572#11" type="truck_truck" />
    <trip depart="441.22" departLane="best" from="-587355743" id="truck462" to="-288862241#1" type="truck_truck" />
    <trip depart="442.17" departLane="best" from="5678277#1" id="truck463" to="5680972#2" type="truck_truck" />
    <trip depart="444.08" departLane="best" from="-46818468#3" id="truck465" to="5705382#0" type="truck_truck" />
    <trip depart="445.99" departLane="best" from="-420572568" id="truck467" to="5680442#9" type="truck_truck" />
    <trip depart="449.81" departLane="best" from="275391269" id="truck471" to="-432554453#1" type="truck_truck" />
    <trip depart="450.77" departLane="best" from="420315113#1" id="truck472" to="276050435#3" type="truck_truck" />
    <trip depart="452.68" departLane="best" from="227064534#0" id="truck474" to="360621303" type="truck_truck" />
    <trip depart="456.50" departLane="best" from="222258271" id="truck478" to="275303300#0" type="truck_truck" />
    <trip depart="460.32" departLane="best" from="46772625#1" id="truck482" to="-221585916#7" type="truck_truck" />
    <trip depart="461.27" departLane="best" from="5677430#5" id="truck483" to="183916203#2" type="truck_truck" />
    <trip depart="464.14" departLane="best" from="5679879" id="truck486" to="222246543#3" type="truck_truck" />
    <trip depart="465.09" departLane="best" from="-46846380" id="truck487" to="5680742#8" type="truck_truck" />
    <trip depart="466.05" departLane="best" from="-111781747#9" id="truck488" to="5679790#0" type="truck_truck" />
    <trip depart="467.00" departLane="best" from="-46818904#7" id="truck489" to="-46863691#5" type="truck_truck" />
    <trip depart="468.91" departLane="best" from="46865765#11" id="truck491" to="-221688252" type="truck_truck" />
    <trip depart="470.82" departLane="best" from="-78288188#0" id="truck493" to="222246285#0" type="truck_truck" />
    <trip depart="474.64" departLane="best" from="-432552965" id="truck497" to="420883010" type="truck_truck" />
    <trip depart="476.55" departLane="best" from="5677340#3" id="truck499" to="5679904#2" type="truck_truck" />
    <trip depart="477.51" departLane="best" from="420884512" id="truck500" to="39956193#2" type="truck_truck" />
    <trip depart="478.46" departLane="best" from="587355787#0" id="truck501" to="-239626767#1" type="truck_truck" />
    <trip depart="479.42" departLane="best" from="40416343" id="truck502" to="276024637#19" type="truck_truck" />
    <trip depart="483.24" departLane="best" from="46835336#17" id="truck506" to="456244377" type="truck_truck" />
    <trip depart="486.10" departLane="best" from="46786524" id="truck509" to="-432554453#10" type="truck_truck" />
    <trip depart="491.83" departLane="best" from="276024637#0" id="truck515" to="-432552965" type="truck_truck" />
    <trip depart="492.79" departLane="best" from="276083330#3" id="truck516" to="483704094#21" type="truck_truck" />
    <trip depart="498.52" departLane="best" from="46121873#0" id="truck522" to="461075409#0" type="truck_truck" />
    <trip depart="502.34" departLane="best" from="46774534#8" id="truck526" to="227064535#5" type="truck_truck" />
    <trip depart="503.29" departLane="best" from="460779250#0" id="truck527" to="-78288188#3" type="truck_truck" />
    <trip depart="504.25" departLane="best" from="46863844#5" id="truck528" to="122625672#1" type="truck_truck" />
    <trip depart="507.11" departLane="best" from="460584837#4" id="truck531" to="5678215#11" type="truck_truck" />
    <trip depart="512.84" departLane="best" from="497382067#1" id="truck537" to="221759320#33" type="truck_truck" />
    <trip depart="513.80" departLane="best" from="221777100#8" id="truck538" to="-154513049#2" type="truck_truck" />
    <trip depart="515.71" departLane="best" from="239626764#1" id="truck540" to="-497257603#0" type="truck_truck" />
    <trip depart="516.66" departLane="best" from="46835336#17" id="truck541" to="-221753936#4" type="truck_truck" />
    <trip depart="518.57" departLane="best" from="276024637#30" id="truck543" to="226998579" type="truck_truck" />
    <trip depart="519.53" departLane="best" from="227064531#2" id="truck544" to="5674502#1" type="truck_truck" />
    <trip depart="520.48" departLane="best" from="5677037#37" id="truck545" to="46121861" type="truck_truck" />
    <trip depart="522.39" departLane="best" from="-494221659#8" id="truck547" to="46835336#18" type="truck_truck" />
    <trip depart="523.35" departLane="best" from="483704094#1" id="truck548" to="221585916#9" type="truck_truck" />
    <trip depart="527.17" departLane="best" from="278135787" id="truck552" to="221601322#13" type="truck_truck" />
    <trip depart="529.08" departLane="best" from="475559459#1" id="truck554" to="-227064555#0" type="truck_truck" />
    <trip depart="530.03" departLane="best" from="232270200#2" id="truck555" to="46817497" type="truck_truck" />
    <trip depart="530.99" departLane="best" from="-183103228" id="truck556" to="221731898#0" type="truck_truck" />
    <trip depart="539.58" departLane="best" from="5681149#1" id="truck565" to="5679854#5" type="truck_truck" />
    <trip depart="543.40" departLane="best" from="221753935" id="truck569" to="5678101#14" type="truck_truck" />
    <trip depart="546.27" departLane="best" from="5678784#23" id="truck572" to="183916203#1" type="truck_truck" />
    <trip depart="549.13" departLane="best" from="221777100#5" id="truck575" to="222248832#1" type="truck_truck" />
    <trip depart="551.04" departLane="best" from="-432554453#4" id="truck577" to="421118181#1" type="truck_truck" />
    <trip depart="552.00" departLane="best" from="5680742#14" id="truck578" to="227064534#1" type="truck_truck" />
    <trip depart="554.86" departLane="best" from="-46835364" id="truck581" to="-587355778#0" type="truck_truck" />
    <trip depart="555.82" departLane="best" from="46786495" id="truck582" to="5677037#1" type="truck_truck" />
    <trip depart="556.77" departLane="best" from="46863844#2" id="truck583" to="-5679826" type="truck_truck" />
    <trip depart="565.37" departLane="best" from="-227074781#5" id="truck592" to="5678756#7" type="truck_truck" />
    <trip depart="566.32" departLane="best" from="-350687715#0" id="truck593" to="5679892#1" type="truck_truck" />
    <trip depart="569.19" departLane="best" from="451380996#0" id="truck596" to="5677926#7" type="truck_truck" />
    <trip depart="570.14" departLane="best" from="5680476#4" id="truck597" to="37523532#0" type="truck_truck" />
    <trip depart="573.01" departLane="best" from="-46865764#10" id="truck600" to="-239629078" type="truck_truck" />
    <trip depart="576.83" departLane="best" from="111781747#6" id="truck604" to="349153378" type="truck_truck" />
    <trip depart="577.78" departLane="best" from="311764602" id="truck605" to="43314998#0" type="truck_truck" />
    <trip depart="580.65" departLane="best" from="221777100#11" id="truck608" to="46817493#3" type="truck_truck" />
    <trip depart="581.60" departLane="best" from="5677438#17" id="truck609" to="46863855" type="truck_truck" />
    <trip depart="587.33" departLane="best" from="-46818902#1" id="truck615" to="227064534#4" type="truck_truck" />
    <trip depart="588.29" departLane="best" from="618977201#0" id="truck616" to="515885162#0" type="truck_truck" />
    <trip depart="589.24" departLane="best" from="23042440#1" id="truck617" to="46788756#1" type="truck_truck" />
    <trip depart="596.88" departLane="best" from="-5678101#7" id="truck625" to="107391104#16" type="truck_truck" />
    <trip depart="597.84" departLane="best" from="5682184#8" id="truck626" to="420346490#2" type="truck_truck" />
    <trip depart="609.30" departLane="best" from="335394629" id="truck638" to="221601322#8" type="truck_truck" />
    <trip depart="611.21" departLane="best" from="432552966#1" id="truck640" to="221759320#35" type="truck_truck" />
    <trip depart="612.16" departLane="best" from="5678101#10" id="truck641" to="409285510#4" type="truck_truck" />
    <trip depart="613.12" departLane="best" from="5678442#4" id="truck642" to="227074793#1" type="truck_truck" />
    <trip depart="615.03" departLane="best" from="37394898#1" id="truck644" to="221597280#6" type="truck_truck" />
    <trip depart="619.80" departLane="best" from="5679904#3" id="truck649" to="460584837#11" type="truck_truck" />
    <trip depart="620.76" departLane="best" from="-420880051#1" id="truck650" to="5679406" type="truck_truck" />
    <trip depart="623.62" departLane="best" from="5680742#11" id="truck653" to="-525679230#4" type="truck_truck" />
    <trip depart="624.58" departLane="best" from="308340267#0" id="truck654" to="5705382#1" type="truck_truck" />
    <trip depart="628.40" departLane="best" from="-68523760#1" id="truck658" to="68523765#0" type="truck_truck" />
    <trip depart="629.35" departLane="best" from="227064555#0" id="truck659" to="-221725601#2" type="truck_truck" />
    <trip depart="630.31" departLane="best" from="5681483" id="truck660" to="5678924#2" type="truck_truck" />
    <trip depart="635.08" departLane="best" from="5678442#32" id="truck665" to="456244378#1" type="truck_truck" />
    <trip depart="639.86" departLane="best" from="350687715#0" id="truck670" to="-46121848#0" type="truck_truck" />
    <trip depart="642.72" departLane="best" from="107391104#26" id="truck673" to="-497257603#8" type="truck_truck" />
    <trip depart="645.59" departLane="best" from="639118784#0" id="truck676" to="-338280635" type="truck_truck" />
    <trip depart="649.41" departLane="best" from="46835336#6" id="truck680" to="654744285#1" type="truck_truck" />
    <trip depart="652.27" departLane="best" from="5674902" id="truck683" to="46835364" type="truck_truck" />
    <trip depart="654.18" departLane="best" from="221759320#34" id="truck685" to="-227064517" type="truck_truck" />
    <trip depart="655.14" departLane="best" from="447792828#0" id="truck686" to="5678262#17" type="truck_truck" />
    <trip depart="656.09" departLane="best" from="-5677150#1" id="truck687" to="5677438#1" type="truck_truck" />
    <trip depart="658.96" departLane="best" from="-232270198#2" id="truck690" to="5677397#9" type="truck_truck" />
    <trip depart="659.91" departLane="best" from="351479503#1" id="truck691" to="221696378#0" type="truck_truck" />
    <trip depart="662.78" departLane="best" from="420875709#1" id="truck694" to="680830519" type="truck_truck" />
    <trip depart="666.60" departLane="best" from="5679790#3" id="truck698" to="222247847#0" type="truck_truck" />
    <trip depart="671.37" departLane="best" from="420346457" id="truck703" to="5681383#12" type="truck_truck" />
    <trip depart="674.24" departLane="best" from="46786496" id="truck706" to="5678442#12" type="truck_truck" />
    <trip depart="675.19" departLane="best" from="446800952#1" id="truck707" to="221777109#22" type="truck_truck" />
    <trip depart="676.15" departLane="best" from="-37394898#0" id="truck708" to="479748559#1" type="truck_truck" />
    <trip depart="679.97" departLane="best" from="5679887#0" id="truck712" to="227064537#0" type="truck_truck" />
    <trip depart="681.88" departLane="best" from="654744274#5" id="truck714" to="5707293#4" type="truck_truck" />
    <trip depart="684.74" departLane="best" from="488941121#1" id="truck717" to="5710416#5" type="truck_truck" />
    <trip depart="689.52" departLane="best" from="456244377" id="truck722" to="46818468#4" type="truck_truck" />
    <trip depart="690.47" departLane="best" from="488030094" id="truck723" to="5707635#2" type="truck_truck" />