<routes xmlns:xsi="http://www.w3.org/2001/XMLSchema-instance" xsi:noNamespaceSchemaLocation="http://sumo.dlr.de/xsd/routes_file.xsd">
    <vType id="veh_passenger" vClass="passenger" />
    <vehicle depart="0.87" departLane="best" id="veh2" type="veh_passenger">
        <route edges="5674356 122625703 122625703-AddedOffRampEdge 46835357#0 5673865 5673865-AddedOffRampEdge 671273490 -5682051 -420572568 46121849 421120403 420569583 639805149 23334074#0 23334074#1 23334074#2 420567582 420567577 420567578 420567573 420567579 420567575 221603657 420567576 420567580 420567572 420567574 420567581 420880629 222254955 420880633 221759331#1 421151334#1 420880634 420880630 420883015 496984337 420883012 420883010 420875688 420875687 204843025#0 204843025#1 542169859 420875693#1 420875693#2 420875712 315569176#1 420875713#1 227064556#0 227064556#1 227064556#2 227064556#3 227064556#5 227064553 420584215 221759323#1 221759323#2 335394629 497258436 335394630 110277551#0 110277551#1 110277551#2 110277551#3 110277551#4 495491358#1 495491358#2" />
    </vehicle>
    <vehicle depart="2.60" departLane="best" id="veh6" type="veh_passenger">
        <route edges="-221586639#2 -221586639#1 -221586639#0 -451910414#10 -451910414#9 -46865764#9 -46865764#8 -46865764#7 -46865764#6 -46865764#5 -46865764#4 -46865764#3 -46865764#2 -46865764#0 -497256596 -497256597 46774534#6 46774534#7 46774534#8 420304899 420319832#0 420319832#1 420319832#2 420319832#3 420319832#4 420319832#5 420319832#6 420319832#7 420319832#8 420319832#9 420319832#10 420319832#11 420319832#12 420319832#13 420319834#0 420319834#1 420319834#2 420319831#1 421116787#0 421116787#1 421116787#2 421116787#3 421116785 420319836#0 420319836#1 420319836#2 420319836#3 680852624 221759333#0 221759333#1 497254142 542169858 420875685 -421149633 -421149635 -227064552 -654744274#7 -654744274#6 -654744274#5 -654744274#4 -654744274#3 -654744274#2 -654744274#1 -654744274#0 -654744279 46817493#6 46817493#7 46817493#8 46817493#9 46817493#10 46817493#11 46817493#12 46817493#13 46817493#14 46817493#15 46817493#16 -222248832#3 -222248832#2 -222248832#1 -222248832#0 420886412 420886410#1 232270204 239626768 587355743 232270199 -639763613#1" />
    </vehicle>
    <vehicle depart="3.04" departLane="best" id="veh7" type="veh_passenger">
        <route edges="46835354 46835346 46835336#10 46835336#11 46835336#12 23334074#0 23334074#1 23334074#2 420567582 420567577 420567578 25563870#1 440633379 221605488 5029221 221731897#0 221731897#1 68523754#0 68523754#1 68523754#2 495315405#0 495315405#1 525646871#0 525646871#1 420571191 420572573 221696387 460576120 630677041 630677037 460576121" />
    </vehicle>
    <vehicle depart="4.78" departLane="best" id="veh11" type="veh_passenger">
        <route edges="221696386#9 497257926#0 497257926#1 5680703#8 5680704 495491356#1 495491356#2 495491356#3 5676994#10 5676994#11 5676994#12 5676994#13 5676994#14 5676994#15 5676994#16 5676994#17 5676994#18 221696381#0 221696381#1 221696381#2 497256110#0 497256110#1 -497256112 -497256111 221688252 420315112 -221753947 221753950 221753933 221753948#0 221753948#1 221753948#2 -221585913 221585918#0 221585918#1 221585918#2 221585918#4 221585918#5 221585918#6 221585918#7 221585918#8 221585918#9 221585918#10 221585918#11 221585918#12 636728274#0 -636728275 -5678101#16 -5678101#15 -5678101#14 -5678101#13 -5678101#12 -5678101#11 -5678101#10 -5678101#9 -5678101#8 -5678101#7" />
    </vehicle>
    <vehicle depart="5.21" departLane="best" id="veh12" type="veh_passenger">
        <route edges="578129950#1 46863844#22 46863844#23 222254951#0 222254951#1 451962063 420567575 221603657 420567576 420567580 420567572 420567574 420567581 420880629 222254955 420880633 221759331#1 421151334#1 420880044 420880042#0 420880042#1 420880041 420880039 451915588 496982424 451915590 451915592 5677511 483704093 222258277" />
    </vehicle>
    <vehicle depart="6.08" departLane="best" id="veh14" type="veh_passenger">
        <route edges="5678784#10 5678784#11 5678784#12 5678784#13 5678784#14 5678784#15 5678784#16 5678784#17 5678784#18 5678784#19 23334074#2 420567582 420567577 420567578 420567573 420567579 37396284 455014438 420572575 221604539 222248833 -222246978 -386201385 -5676917 -460126498#0 -460126495#0 -46788750 587067518#0 587067518#1 421754839 421121612 37394898#0 37394898#1 37394898#2 37394898#3 37394898#4 37394899#0 37394899#1 37394899#2 37394899#3 37394899#4 37394899#5 37394900 497253780#0 497253780#1 497253780#2 497253780#3 497253780#4 497253780#5 497253780#6 497253780#7 497253780#8 682402389 682402388 497253779 682402640 206610786#0 206610786#1 206610786#4 206610786#5 206610786#6 206610786#7 206610786#10 206610786#13 206610786#14 206610786#15 206610786#16 206610786#17 206610786#18 206610786#19 5677037#22 5677037#23 5677037#24 5677037#25 46818904#14 46818904#15" />
    </vehicle>
    <vehicle depart="6.51" departLane="best" id="veh15" type="veh_passenger">
        <route edges="5677932 524340776#1 524340776#2 491160987 420346485 446800952#0 446800952#1 420584902#0 420584902#1 420883009#0 420883009#1 420883007#0 420883007#1 222266013 620132897 420883003 -420880633 -222254955 40416344#0 40416344#1 5680646 46137501#1 455014440#0 455014440#1 -420880051#5 46772629#1 107391104#25 107391104#26 5675915#0 5675915#1" />
    </vehicle>
    <vehicle depart="6.95" departLane="best" id="veh16" type="veh_passenger">
        <route edges="421084098 183794559#0 183794559#1 183794559#2 183794559#3 5676262#5 -221759328#0 -351479503#3 -351479503#2 -351479503#1 -351479503#0 497259892#0 497259892#1 497259892#2 497259892#3 497259892#4 46774534#0 46774534#1 46774534#2 46774534#3 46774534#4 46774534#5 46774534#6 46774534#7 46774534#8 420304899 420319832#0 420319832#1 420319832#2 420319832#3 420319832#4 420319832#5 420319832#6 420319832#7 420319832#8 420319832#9 420319832#10 420319832#11 420319832#12 420319832#13 420319834#0 420319834#1 420319834#2 420319831#1 421116787#0 421116787#1 421116787#2 421116787#3 421116785 420319836#0 420319836#1 420319836#2 420319836#3 680852624 221759333#0 221759333#1 497254142 542169858 420875685 420875672 420875656#0 420875656#1 420875678 420875696 542169861#0 542169861#1 420883011 222251427 420883013 -420880630 -420880632 222279148 -527223926 -221731899 -420880045 -420880037 -420880046#0 -139919720#1 -139919720#0 500534706 110155730#0 110155730#2 421754837 511768217 456391963#0 456391963#1 456391963#2 110155732 420571190#1 46788744#0 46788744#1 46788744#2 -68523775#1 -68523775#0 626315789#0" />
    </vehicle>
    <vehicle depart="7.38" departLane="best" id="veh17" type="veh_passenger">
        <route edges="222258273#0 222258273#1 5674982 654744290 460584837#3 460584837#4 460584837#5 460584837#6 -46818468#1 -46818468#0 78288188#0 78288188#1 78288188#2 78288188#3 78288188#4 5705730 227074775#0 227074775#1 227074775#2 68325083#0 68325083#1 68325083#2 587355778#0 587355778#1 587355778#2 587355778#3 227074776#0 227074776#1 227074776#2 227074776#3 227074776#4 -227064529#1 -227064529#0 221753949#0 221753949#1 221753936#0 221753936#1 221753936#2 221753936#3 221753936#4 221753936#5 5678262#0 5678262#1 5678262#2 5678262#3 5678262#4 530568988#1 460779250#15 460779250#16" />
    </vehicle>
    <vehicle depart="11.29" departLane="best" id="veh26" type="veh_passenger">
        <route edges="111781747#0 111781747#1 111781747#2 123001151#1 123001151#2 -43242499#3 -43242499#2 524340776#6 -525679230#6 -525679230#5 -525679230#4 5676353#2 5676353#3 5682095#3" />
    </vehicle>
    <vehicle depart="12.15" departLane="best" id="veh28" type="veh_passenger">
        <route edges="-497256111 221688252 420315112 5681678#0 5681678#1 420319832#12 420319832#13 420319834#0 420319834#1 420319834#2 420319831#1 421116787#0 421116787#1 421116787#2 421116787#3 421116785 420319836#0 420319836#1 420319836#2 420319836#3 680852624 221759333#0 221759333#1 497254142 542169858 420875685 420875672 420875656#0 420875656#1 420875678 420875696 542169861#0 542169861#1 420883011 222251427 420883013 -420880630 -420880632 -421151334#1 -421151334#0 420883006 221759332 500269691 308331246 46865768#0 46865768#1 46865768#2 641915866#3 641915866#4 641915866#5 641915866#6 641915866#7 641915866#8 641915866#9 641915866#10 227064535#0 227064535#1 227064535#2 227064535#3 227064535#5 5675809" />
    </vehicle>
    <vehicle depart="14.76" departLane="best" id="veh34" type="veh_passenger">
        <route edges="221585914#7 221585914#8 221585914#9 221585914#10 221585914#11 221585914#12 221585914#13 221585914#14 221585914#15 221585914#16 221585914#17 221585914#18 221585914#19 221585914#20 221585914#21 221585914#22 221585914#23" />
    </vehicle>
    <vehicle depart="15.63" departLane="best" id="veh36" type="veh_passenger">
        <route edges="5679904#11 5679904#12 483704094#23 -46865764#7 -46865764#6 -46865764#5 -46865764#4 -46865764#3 -46865764#2 -46865764#0 -497256596 -497256597 -5680361#1 -5680361#0 221585918#8 221585918#9 221585918#10 221585918#11 221585918#12 636728274#0 -636728275 -5678101#16 -5678101#15 -5678101#14 -5678101#13 -5678101#12 -5678101#11 -5678101#10 -5678101#9 5680992#12 275303303#0 275303303#1 275303285 275303300#0 275303300#1 275303273 275303281 5677430#13 221777100#13 221777100#14" />
    </vehicle>
    <vehicle depart="16.06" departLane="best" id="veh37" type="veh_passenger">
        <route edges="46838317#1 496995105#0 496995105#1 308338861#0 5680807#1 308338860 40785412 40785410#0 40785410#1 227074809 420346441 420346448#1 420346448#2 420346448#3 420346448#4 420346446 420346439 420346447#1 420346447#2 420346444#1 587355787#0 587355787#1 587355787#2 587355787#3 524340771#0 524340771#1 524340771#2 524340771#3 524340771#4 524340771#6 524340771#7 587355786 222254952#0 222254952#1 222254955 420880633 221759331#1 421151334#1 420880634 420880630 420883015 496984337 420883012 420883010 420875688 420875687 204843025#0 204843025#1 542169859 420875693#1 420875693#2 420875712 315569176#1 420875713#1 227064556#0 227064556#1 227064556#2 227064556#3 227064556#5 227064553 420584215 221759323#1 221759323#2 335394629 420583309#0 420583309#1 420583304#1 420583302#1 420318565 -658936635#1 -221570521#7 274894225" />
    </vehicle>
    <vehicle depart="18.67" departLane="best" id="veh43" type="veh_passenger">
        <route edges="686370900 123001156#0 123001156#1 123001156#2 123001156#3 450814751 40416345 587355787#2 587355787#3 524340771#0 524340771#1 524340771#2 524340771#3 524340771#4 524340771#6 524340771#7 587355786 222254952#0 222254952#1 40416344#0 40416344#1 5680646 -420880037 -420880046#0 -139919720#1 -139919720#0 500534706 110155730#0 110155731#0 46788748#0 46788748#1 34452220#4 421755067#0 421755067#1" />
    </vehicle>
    <vehicle depart="19.53" departLane="best" id="veh45" type="veh_passenger">
        <route edges="-420880051#1 -420880049#0 -46121853#2 -46121853#1 -46121853#0 500534706 110155730#0 110155730#2 421754837 511768217 456391963#0 456391963#1 456391963#2 420571176#1 68325081 420571181 420571192 420571183 78288187#0 78288187#1 421120405 227074797#0 227074797#1 464255706#0 464255706#1 464255706#2 420571187 420571184 -227064517 5680049#0 5680049#1 227064520#0 46835336#22 46835336#23 5680085#1 46835370#2 46835370#3" />
    </vehicle>
    <vehicle depart="20.40" departLane="best" id="veh47" type="veh_passenger">
        <route edges="-227074810 420346441 420346448#1 420346448#2 420346448#3 420346448#4 420346446 420346439 420346447#1 420346447#2 420346444#1 587355787#0 587355787#1 587355787#2 587355787#3 524340771#0 524340771#1 524340771#2 524340771#3 524340771#4 524340771#6 524340771#7 587355786 222254952#0 222254952#1 40416344#0 40416344#1 5680646 -420880037 -420880046#0 -139919720#1 -139919720#0 500534706 110155730#0 110155730#2 421754837 511768217 456391963#0 456391963#1 456391963#2 110155732 420571190#1 46788744#0 46788744#1 46788744#2 222247847#0 222247847#1 222247847#2 420886412 420886410#1 232270204 239626768 -239626765 -5676705 239626766" />
    </vehicle>
    <vehicle depart="22.14" departLane="best" id="veh51" type="veh_passenger">
        <route edges="479748558#1 5677397#8 221753942#5 221753942#6 479748557#0 479748557#1 479748557#2 497258437#3 497258437#4 497258437#5 497258437#6 221759320#34 221759320#35 221759329 5680880#0 5680880#1 5680880#2 5680880#3 5680880#4 421116791 535252392 421116792 421116787#0 421116787#1 421116787#2 421116787#3 421116785 420319836#0 420319836#1 420319836#2 420319836#3 680852624 221759333#0 221759333#1 497254142 542169858 420875685 420875672 420875656#0 420875656#1 420875678 420875696 542169861#0 542169861#1 420883011 222251427 496984334 46772622#0 46772622#1 46772622#2 625647904#0 625647904#2 451915593#1" />
    </vehicle>
    <vehicle depart="22.57" departLane="best" id="veh52" type="veh_passenger">
        <route edges="110345443 183794559#0 183794559#1 183794559#2 183794559#3 5676262#5 -221759328#0 -351479503#3 -351479503#2 -351479503#1 -351479503#0 497259892#0 497259892#1 497259892#2 497259892#3 497259892#4 46774534#0 46774534#1 46774534#2 46774534#3 46774534#4 46774534#5 46774534#6 46774534#7 46774534#8 420304899 420319832#0 420319832#1 420319832#2 420319832#3 420319832#4 420319832#5 420319832#6 420319832#7 420319832#8 420319832#9 420319832#10 420319832#11 420319832#12 420319832#13 420319834#0 420319834#1 420319834#2 420319831#1 421116787#0 421116787#1 421116787#2 421116787#3 421116785 420319836#0 420319836#1 420319836#2 420319836#3 680852624 221759333#0 221759333#1 497254142 542169858 420875685 420875672 420875656#0 420875656#1 420875678 420875696 542169861#0 542169861#1 420883011 222251427 420883013 -420880630 -420880632 -421151334#1 -421151334#0 420883006 221759332 500269691 420882998 420883008#0 420883008#1 308331245#0 308331245#1 420584903#0 420584903#1 420346452 420346478#0 420346478#1 420346487#0 420346487#1 420346459 227074808 227074807#0 227074807#1 227074807#2 420346484#0 420346484#1 420346484#2 420346480#0 420346480#1 420346480#2 -227074810 -420346497 -420346496 -40785410#0 -5679441 5677584 308338861#0 308338861#1 221602118 46838322 221602121 349372430 46863855 46863840#0" />
    </vehicle>
    <vehicle depart="23.44" departLane="best" id="veh54" type="veh_passenger">
        <route edges="308338866 221602119 40416340#0 40416340#1 46863844#1 46863844#2 46863844#3 46863844#4 5680420#0 5680420#1 360621303 440498211 123001156#0 573632388" />
    </vehicle>
    <vehicle depart="24.31" departLane="best" id="veh56" type="veh_passenger">
        <route edges="41381890#1 41381890#2 587067518#0 587067518#1 222246981#0 222246981#1 421755067#0 421755067#1 421755066 221723366 420880048 46121853#1 46121853#2 46121853#5 420880051#1 420880051#5 221723367 420880635 288862240#0 288862240#1 288862240#2 288862240#3 288862240#4 288862240#5 288862240#6 288862240#7 288862240#8 46818468#6 46818468#7 46818468#8 23334091#0 23334091#1 23334091#2 23334091#3 587067526#0 587067526#1 587067526#2 221696380#0 221696380#1 -350687715#1 -350687715#0 -221688255#1 -221688255#0 -497256112 -497256111 221688252 420315112 -221753947 221753950 221753933 221753948#0 221753948#1 221753948#2 -221585913 221585918#0 5681331 221585914#0 -5680477" />
    </vehicle>
    <vehicle depart="24.74" departLane="best" id="veh57" type="veh_passenger">
        <route edges="5680853#0 5678784#2 5678784#3 5678784#4 5678784#5 5678784#6 5678784#7 5678784#8 227074799#1 227074799#2 227074799#3 227074799#4 450814751 40416345 587355787#2 587355787#3 524340771#0 524340771#1 524340771#2 524340771#3 524340771#4 524340771#6 524340771#7 587355786 222254952#0 222254952#1 222254955 420880633 221759331#1 421151334#1 420880634 420880630 420883015 496984337 420883012 420883010 420875688 420875687 204843025#0 204843025#1 542169859 420875693#1 420875693#2 221759326 496980629#0 496980629#1 420319835#0 420319835#1 315569175#0 542169856#1 542169856#2 542169856#3 542169856#4 542169856#5 542169856#6 483704094#11 483704094#12 475559459#6 475559459#7 479748559#0 5680120#1 5680120#2" />
    </vehicle>
    <vehicle depart="25.18" departLane="best" id="veh58" type="veh_passenger">
        <route edges="219964442#0 5679548#1 221725601#0 221725601#1 221725601#2 221725601#3 -227074765#3 -227074765#2 -227074765#1 -227074765#0 -68523760#2 -68523760#1 -68523760#0 -471943034#4 -471943034#3 -471943034#2 -471943034#1 -471943034#0 -471943031#4 -471943031#3 -471943031#2 276067484 -221753936#1 -221753936#0 -221753949#1 -221753949#0 227064529#0 227064529#1 -227074776#4 -227074776#3 -227074776#2 -227074776#1 -227074776#0 -587355778#3 -587355778#2 -587355778#1 -587355778#0 -68325083#2 -68325083#1 -68325083#0 -227074775#2 -227074775#1 -227074775#0 -5705730 5679460#0 5679460#1 46817493#0 46817493#1 46817493#2 46818468#1 46818468#2 -497253780#6 -497253780#5 -497253780#4 654744274#2 654744274#3 654744274#4 654744274#5 107391104#17 107391104#18 107391104#19 107391104#20 107391104#21 107391104#22 107391104#23 107391104#24 107391104#25 107391104#26 107391104#27 493933673#0 493933673#1 420512627 221723366 139919720#0 139919720#1 420880046#0 420880046#1 420880045 473475839 527223926 123001160 420883006 221759332 500269691 420882998 420883008#0 420883008#1 308331245#0 308331245#1 420584903#0 420584903#1 420346452 420346478#0 420346478#1 420346487#0 420346487#1 420346459 227074808 227074807#0 227074807#1 227074807#2 420346484#0 420346484#1 420346484#2 420346480#0 420346480#1 420346480#2 -227074810 -420346497 -420346496 -40785410#0 -5679441 5677584 308338861#0 308338861#1 221602118 46838322 221602121 349372430 46863774#0" />
    </vehicle>
    <vehicle depart="29.08" departLane="best" id="veh67" type="veh_passenger">
        <route edges="-360608776 5679904#1 5679904#2 46774534#8 420304899 420319832#0 420319832#1 420319832#2 420319832#3 420319832#4 420319832#5 420319832#6 420319832#7 420319832#8 420319832#9 420319832#10 420319832#11 420319832#12 420319832#13 420319834#0 420319834#1 420319834#2 420319831#1 421116787#0 421116787#1 421116787#2 421116787#3 421116785 420319836#0 420319836#1 420319836#2 420319836#3 680852624 221759333#0 221759333#1 497254142 542169858 420875685 420875672 420875656#0 420875656#1 420875678 420875696 542169861#0 542169861#1 420883011 222251427 420883013 -420880630 -420880632 -421151334#1 -421151334#0 -420880633 -222254955 -420880629 -420567581 5681199#3 145079213#2 347014804#3 420567572" />
    </vehicle>
    <vehicle depart="29.52" departLane="best" id="veh68" type="veh_passenger">
        <route edges="-23334074#1 -23334074#0 -639805149 615942229 421120403 420569583 639805149 23334074#0 23334074#1 23334074#2 420567582 420567577 420567578 420567573 420567579 37396284 455014438 420572575 221604539 222248833 -222246978 -386201385 -5676917 -460126498#0 -460126495#0 -46788750 587067518#0 587067518#1 421754839 421121612 37394898#0 37394898#1 37394898#2 37394898#3 37394898#4 37394899#0 37394899#1 37394899#2 37394899#3 37394899#4 37394899#5 37394900 497253780#0 497253780#1 497253780#2 497253780#3 497253780#4 497253780#5 497253780#6 497253780#7 497253780#8 682402389 682402388 497253779 682402640 206610786#0 206610786#1 206610786#4 206610786#5 206610786#6 206610786#7 206610786#10 206610786#13 206610786#14 206610786#15 206610786#16 206610786#17 206610786#18 206610786#19 5677037#22 5677037#23 5677037#24 5677037#25" />
    </vehicle>
    <vehicle depart="30.82" departLane="best" id="veh71" type="veh_passenger">
        <route edges="110155730#2 421754837 511768217 421754839 421121612 37394898#0 37394898#1 37394898#2 37394898#3 37394898#4 37394899#0 37394899#1 37394899#2 37394899#3 37394899#4 37394899#5 37394900 497253780#0 497253780#1 497253780#2 497253780#3 497253780#4 497253780#5 497253780#6 46818468#3 46818468#4 46818468#5 46818468#6 46818468#7 46818468#8 23334091#0 23334091#1 23334091#2 23334091#3 587067526#0 587067526#1 587067526#2 221696380#0 221696380#1 -350687715#1 -350687715#0 -221688255#1 -221688255#0 -497256112 -497256111 221688252 420315112 -221753947 221753950 221753933 221753948#0 221753948#1 221753948#2 5676437 5680159#2 5680159#3" />
    </vehicle>
    <vehicle depart="31.25" departLane="best" id="veh72" type="veh_passenger">
        <route edges="25564091#2 122660424#1 545291572#0 545291572#1 210311245 464255705 221694583#0 221694583#1 440633365 440633365-AddedOffRampEdge 455211317#0 455211317#1 455211317#2 221694584 221604538 -221605486 -420572574 46863691#0 46863691#1 46863691#3 46863691#4 46863691#5 46863691#6 5680646 46137501#1 455014440#0 455014440#1 221723367 420880635 288862240#0 288862240#1 288862240#2 288862240#3 288862240#4 288862240#5 288862240#6 288862240#7 288862240#8 420875699 420875707#0 420875707#1 420875709#0 420875709#1 222246543#2 222246543#3 222246543#4 420626018 107391104#0 107391104#1 107391104#3" />
    </vehicle>
    <vehicle depart="32.99" departLane="best" id="veh76" type="veh_passenger">
        <route edges="276043628#3 5676264 479748557#9 479748557#11 479748557#12 479748557#13 479748557#14 479748557#15 420315113#0 420315113#1 420319832#9 420319832#10 420319832#11 420319832#12 420319832#13 420319834#0 420319834#1 420319834#2 420319831#1 421116787#0 421116787#1 421116787#2 421116787#3 421116785 420319836#0 420319836#1 420319836#2 420319836#3 680852624 221759333#0 221759333#1 497254142 542169858 420875685 421149636#0 421149636#1 421118180 420584209 420584206 420584207 420584210 420584208 420584212 421118181#1 420584214#1 97010395#0 452286948#1 97010425#2 154508307 43314997#1" />
    </vehicle>
    <vehicle depart="33.43" departLane="best" id="veh77" type="veh_passenger">
        <route edges="-432554453#9 -432554453#8 -432554453#4 -432554453#3 -432554453#2 -432554453#1 -432554453#0 221725601#0 221725601#1 221725601#2 221725601#3 -227074765#3 -227074765#2 -227074765#1 -227074765#0 -68523760#2 -68523760#1 -68523760#0 -471943034#4 -471943034#3 -471943034#2 -471943034#1 -471943034#0 -471943031#4 -471943031#3 -471943031#2 276067484 -221753936#1 -221753936#0 -221753949#1 -221753949#0 227064529#0 227064529#1 -227074776#4 -227074776#3 -227074776#2 -227074776#1 -227074776#0 -587355778#3 -587355778#2 -587355778#1 -587355778#0 -68325083#2 -68325083#1 -68325083#0 -227074775#2 -227074775#1 -227074775#0 -5705730 5679460#0 5679460#1 46817493#0 46817493#1 46817493#2 46818468#1 46818468#2 -497253780#6 -497253780#5 -497253780#4 654744274#2 654744274#3 654744274#4 654744274#5 654744274#6 654744274#7 227064552 440633451 421149634 420875672 420875656#0 420875656#1 420875678 420875696 542169861#0 542169861#1 420883011 222251427 496984334 46772622#0 46772622#1 46772622#2 625647904#0 625647904#2 625647896#0 625647896#1 625647896#2 625647896#3 625647896#4 625647896#5 43242499#0 43242499#1 43242499#2 43242499#3 43242499#4 43242499#5 123001149#6" />
    </vehicle>
    <vehicle depart="33.86" departLane="best" id="veh78" type="veh_passenger">
        <route edges="221696386#10 221696386#11 221696386#12 -206610786#14 -206610786#13 -206610786#10 -206610786#7 -206610786#6 -206610786#5 -206610786#4 -206610786#1 -206610786#0 -682402640 -497253779 -682402388 -682402389 -497253780#8 -497253780#7 -497253780#6 -497253780#5 -497253780#4 -497253780#3 -497253780#2 -497253780#1 -497253780#0 -37394900 -37394899#5 -37394899#4 -37394899#3 -37394899#2 -37394899#1 -37394899#0 -37394898#4 -37394898#3 -37394898#2 -37394898#1 -37394898#0 421121616 421121610 41381890#0 41381890#1 41381890#2 46788750" />
    </vehicle>
    <vehicle depart="34.29" departLane="best" id="veh79" type="veh_passenger">
        <route edges="-5682164#2 -5682164#1 -5682164#0 -46788753#3 -46121853#2 -46121853#1 -46121853#0 500534706 110155730#0 110155730#2 421754837 511768217 456391963#0 456391963#1 456391963#2 110155732 420571190#1 496990716 5674316 122625672#0 122625672#1" />
    </vehicle>
    <vehicle depart="35.16" departLane="best" id="veh81" type="veh_passenger">
        <route edges="-5681578 5681787#1 5680167#8 46835367#2 46835367#3 46835367#4 -46121844#0 -5678318 46121868 221759319 221731898#0 221731898#1 5678510 -46121867#0 -221604537#1 -221604537#0 46121857 5680955#0" />
    </vehicle>
    <vehicle depart="35.60" departLane="best" id="veh82" type="veh_passenger">
        <route edges="5679437#1 -682402640 -497253779 -682402388 -682402389 -497253780#8 -497253780#7 -497253780#6 -497253780#5 -497253780#4 654744274#2 654744274#3 654744274#4 654744274#5 107391104#17 107391104#18 107391104#19 107391104#20 107391104#21 107391104#22 107391104#23 107391104#24 107391104#25 107391104#26 107391104#27 493933673#0 493933673#1 420512627 221723366 139919720#0 139919720#1 420880046#0 420880046#1 420880045 473475839 527223926 123001160 420883006 221759332 500269691 420882998 420883008#0 420883008#1 308331245#0 308331245#1 420584903#0 420584903#1 420346452 -40785409#2 -40785409#1 -40785409#0" />
    </vehicle>
    <vehicle depart="36.46" departLane="best" id="veh84" type="veh_passenger">
        <route edges="-5679829 221585907#3 5679887#0 5679887#1 5679887#2 5679887#3 221777109#0 -497257603#4 -497257603#3 -497257603#2 -497257603#1 -497257603#0" />
    </vehicle>
    <vehicle depart="36.90" departLane="best" id="veh85" type="veh_passenger">
        <route edges="5681691#0 5681691#1 223185218#0 223185218#1 223185218#2 5680167#6 -5680049#1 -5680049#0 39015290#0 39015290#1 39015290#2 278135785#0 278135785#1 46819907 5680220#1 440633442 451934311 486010416 557041245 440633414 46819926#0 545291578#1 545291578#1-AddedOffRampEdge 46137556 222258266#0 222258266#1 222258266#2 -420886409 -420886410#0 420886411 222248832#1 222248832#2 222248832#3 5676937 5675963#0 5675963#1 5675963#2 5675963#3 5675963#4 5675963#5 5675963#6 5675963#7 46818905#0 46818905#2 463957168" />
    </vehicle>
    <vehicle depart="37.33" departLane="best" id="veh86" type="veh_passenger">
        <route edges="349369490 587355773 5675586 -227074765#0 -68523760#2 -68523760#1 -68523760#0 -471943034#4 -471943034#3 -471943034#2 -471943034#1 -471943034#0 -471943031#4 -471943031#3 -471943031#2 276067484 -221753936#1 -221753936#0 -221753949#1 -221753949#0 227064529#0 227064529#1 -227074776#4 -227074776#3 -227074776#2 -227074776#1 -227074776#0 -587355778#3 -587355778#2 -587355778#1 -587355778#0 -68325083#2 -68325083#1 -68325083#0 -227074775#2 -227074775#1 -227074775#0 -5705730 5679460#0 5679460#1 46817493#0 46817493#1 46817493#2 46817493#3 46817493#4 46817493#5 46817493#6 46817493#7 5677585#1" />
    </vehicle>
    <vehicle depart="39.07" departLane="best" id="veh90" type="veh_passenger">
        <route edges="542169856#12 -420318571 -420318569 -420318561 -420318559 -420583304#1 -420583304#0 -420583309#0 -420583307#1 -420583307#0 -420583316#0 -295384457#1 -295384457#0 -420583311 420583298#0 420583298#1 5676379#0 5676379#1 5677899#2 68523776-AddedOnRampEdge 68523776 97010378#0 452286946#1 -452286949#1 5682095#1 5680116#0 5680116#1 525679230#3 525679230#4 525679230#5 525679230#6 494221659#0 494221659#1 494221659#2 494221659#3 494221659#4 494221659#5 494221659#6 494221659#7 494221659#8" />
    </vehicle>
    <vehicle depart="40.81" departLane="best" id="veh94" type="veh_passenger">
        <route edges="-5678101#0 -221725602#3 -221725602#1 -221725599#1 -221725599#0 -219964442#1 -219964442#0 221688754#0 221688754#2 221688754#3 221688754#4 5675586 -227074765#0 -68523760#2 -68523760#1 -68523760#0 -471943034#4 -471943034#3 -471943034#2 -471943034#1 -471943034#0 -471943031#4 -471943031#3 -471943031#2 276067484 -221753936#1 -221753936#0 -221753949#1 -221753949#0 227064529#0 227064529#1 -227074776#4 -227074776#3 -227074776#2 -227074776#1 -227074776#0 -587355778#3 -587355778#2 -587355778#1 -587355778#0 -68325083#2 -68325083#1 -68325083#0 -227074775#2 -227074775#1 -227074775#0 -5705730 5679460#0 5679460#1 46817493#0 46817493#1 46817493#2 46817493#3 46817493#4 46817493#5 46817493#6 46817493#7 46817493#8 46817493#9 46817493#10 46817493#11 46817493#12 46817493#13 46817493#14 46817493#15 46817493#16 46818464 68523753 46818457-AddedOnRampEdge 46818457 420571185 221605484#1 524345883 524345883-AddedOffRampEdge 37523639" />
    </vehicle>
    <vehicle depart="42.11" departLane="best" id="veh97" type="veh_passenger">
        <route edges="276083330#4 276067484 -221753936#1 -221753936#0 -221753949#1 -221753949#0 227064529#0 227064529#1 497257602 590201148 500452656#0 500452656#1 500452656#2 497257601 5679708#0 5679708#1 5679708#2 5679708#3 5679892#2" />
    </vehicle>
    <vehicle depart="42.98" departLane="best" id="veh99" type="veh_passenger">
        <route edges="97010378#0 452286948#1 97010425#2 154508307 420583320 68523758 5677899#1 5677899#2 68523776-AddedOnRampEdge 68523776 97010373#0 97010373#1 -420584214#1 -421118181#1 -421118181#0 -420584208 -420584213 -420584207 -420584203 -420584209 -420584211 -421149636#1 -421149636#0 -421149633 -421149635 -227064552 -654744274#7 -654744274#6 -654744274#5 -654744274#4 -654744274#3 -654744274#2 497253780#4 497253780#5 497253780#6 -46818468#2 -46818468#1 -46818468#0 78288188#0 78288188#1 78288188#2 78288188#3 78288188#4 5705730 46141624 420886403 420884512 5678929#0 5678929#1 5678929#2 5678929#3" />
    </vehicle>
    <vehicle depart="43.84" departLane="best" id="veh101" type="veh_passenger">
        <route edges="5678784#18 5678784#19 23334074#2 420567582 420567577 420567578 420567573 420567579 37396284 455014438 420572575 221604539 222248833 -222246978 -386201385 -460576121 -630677037 -630677041 -460576120 -221696387 -420572573 420571186 221605483#0 221605483#1 421754612 420571190#1 46788744#0 46788744#1 46788744#2 222247847#0 222247847#1 222247847#2 -420886405 -222258273#8 -222258273#7 -222258273#6 -222258273#5 -222258273#4 -222258273#3 -222258273#2 -222258273#1 -222258273#0 -464137215 -5678919#1" />
    </vehicle>
    <vehicle depart="44.71" departLane="best" id="veh103" type="veh_passenger">