<routes xmlns:xsi="http://www.w3.org/2001/XMLSchema-instance" xsi:noNamespaceSchemaLocation="http://sumo.dlr.de/xsd/routes_file.xsd">
    <vType id="truck_truck" vClass="truck" />
    <vehicle depart="0.96" departLane="best" id="truck1" type="truck_truck">
        <route edges="219964428#4 219964428#5 219964428#6 219964428#7 219964428#8 219964428#9 219964428#10 219964428#11 219964428#12 219964428#13 219964428#14 219964428#15 219964428#16 219964428#17 219964428#18 586174692 -5677270 221688754#0 221688754#2 221688754#3 221688754#4 440633382#0 440633382#1 -227074763 -221585916#12 -221585916#11 -221585916#10 -221585916#9 -221585916#8 -221585916#7 -221585916#6 -221585916#5 -221585916#4 -221585916#3 -221585916#2 -221585916#1 -497260896#1 -497260896#0 587355768 -221777103 -46818904#19 -46818904#18 5678442#28 5678442#29 5678442#31 112168176" />
    </vehicle>
    <vehicle depart="4.78" departLane="best" id="truck5" type="truck_truck">
        <route edges="-587067515 -46838322 221602120 516666632 5677945#0 5677945#1 262798838 308338860 40785412 40785410#0 40785410#1 227074809 420346441 420346448#1 420346448#2 420346448#3 420346448#4 420346446 420346439 420346447#1 420346447#2 420346444#1 587355787#0 587355787#1 587355787#2 587355787#3 524340771#0 524340771#1 524340771#2 524340771#3 524340771#4 524340771#6 524340771#7 587355786 222254952#0 222254952#1 40416344#0 40416344#1 5680646 46137501#1 455014440#0 455014440#1 221723367 420880635 288862240#0 288862240#1 288862240#2 288862240#3 288862240#4 288862240#5 288862240#6 288862240#7 288862240#8 -46818468#5 -46818468#4 -46818468#3 -46818468#2 -46818468#1 -46818468#0 78288188#0 78288188#1 78288188#2 78288188#3 78288188#4 5705730 46141624 420886403" />
    </vehicle>
    <vehicle depart="10.51" departLane="best" id="truck11" type="truck_truck">
        <route edges="221777103 221585907#0 221585907#1 221585907#2 221585907#3 -221753935 -221753949#1 -221753949#0 227064529#0 227064529#1 -227074776#4 -227074776#3 -227074776#2 -227074776#1 -227074776#0 -587355778#3 -587355778#2 -587355778#1 -587355778#0 -68325083#2 -68325083#1 -68325083#0 -227074775#2 -227074775#1 -227074775#0 -5705730 -78288188#4 -78288188#3 -78288188#2 -78288188#1 -78288188#0 5678919#0 5678919#1 464137215 222258273#0 222258273#1 222258273#2 222258273#3 222258273#4 222258273#5 222258273#6 222258273#7 222258273#8 222258273#9 -222247847#2 -222247847#1 -222247847#0 -46788744#2 -46788744#1 -46788744#0 496990716 46121873#0 46121873#1 46121873#2 -5676937" />
    </vehicle>
    <vehicle depart="12.42" departLane="best" id="truck13" type="truck_truck">
        <route edges="-420346447#2 -420346447#1 -420346447#0 464551540#0 464551540#1 464551540#2 464551540#3 420346490#0 420346490#1 420346490#2 420346490#3 491160987 420346485 446800952#0 446800952#1 420584902#0 420584902#1 420883009#0 420883009#1 420883007#0 420883007#1 222266013 620132897 420883003 -420880633 -222254955 40416344#0 40416344#1 5680646 46137501#1 455014440#0 455014440#1 221723367 420880635 288862240#0 288862240#1 288862240#2 288862240#3 288862240#4 288862240#5 288862240#6 288862240#7 288862240#8 420875699 420875707#0 420875707#1 420875709#0 420875709#1 227074779#0 227074779#1 495491356#1 495491356#2 495491356#3 5676994#10 5676994#11 5676994#12 5676994#13 5676994#14 5676994#15 -432552978 -432552974" />
    </vehicle>
    <vehicle depart="13.37" departLane="best" id="truck14" type="truck_truck">
        <route edges="5678919#0 5678919#1 464137215 222258273#0 222258273#1 222258273#2 222258273#3 222258273#4 222258273#5 222258273#6 222258273#7 222258273#8 222258273#9 -222247847#2 -222247847#1 -222247847#0 -46788744#2 -46788744#1 -46788744#0 496990716 46121873#0 46121873#1 46818463" />
    </vehicle>
    <vehicle depart="14.33" departLane="best" id="truck15" type="truck_truck">
        <route edges="5677950#5 5677950#6 -221585916#9 -221585916#8 -221585916#7 -221585916#6 -497257603#9 -497257603#8 -497257603#5 -497257603#4 -497257603#3 -497257603#2 -497257603#1 -497257603#0 -497257600 -206610786#19 -206610786#18 -206610786#17 -206610786#16 -206610786#15 -206610786#14 -206610786#13 -206610786#10 -206610786#7 -206610786#6 -206610786#5 -206610786#4 -206610786#1 -206610786#0 -682402640 -497253779 -682402388 -682402389 -497253780#8 -497253780#7 -497253780#6 -497253780#5 -497253780#4 654744274#2 654744274#3 654744274#4 654744274#5 654744274#6 654744274#7 227064552 440633451 421149634 420875672 420875656#0 420875656#1 420875678 5675664#0 5675664#1 5675664#2" />
    </vehicle>
    <vehicle depart="16.24" departLane="best" id="truck17" type="truck_truck">
        <route edges="5678387#2 -206610786#15 -206610786#14 -206610786#13 -206610786#10 -206610786#7 -206610786#6 -206610786#5 -206610786#4 -206610786#1 -206610786#0 -682402640 -497253779 -682402388 -682402389 -497253780#8 -497253780#7 -497253780#6 -497253780#5 -497253780#4 -497253780#3 -497253780#2 -497253780#1 -497253780#0 -37394900 -37394899#5 -37394899#4 -37394899#3 -37394899#2 -37394899#1 -37394899#0 -37394898#4 -37394898#3 -37394898#2 -37394898#1 -37394898#0 421121616 421121610 456391963#0 456391963#1 456391963#2 420571176#1 68325081 420571181 420571192 420571183 78288187#0 78288187#1 421120405 227074797#0 227074797#1 464255706#0 464255706#1 464255706#2 420571187 420571184 -227064517 5680049#0 5680049#1 5680167#7 5680167#8 5680167#9 5677340#2 46835336#19 46835336#20 46835336#21" />
    </vehicle>
    <vehicle depart="18.15" departLane="best" id="truck19" type="truck_truck">
        <route edges="500452656#2 497257601 -497257600 -206610786#19 -206610786#18 -206610786#17 -206610786#16 -206610786#15 -206610786#14 -206610786#13 -206610786#10 -206610786#7 -206610786#6 -206610786#5 -206610786#4 -206610786#1 -206610786#0 -682402640 -497253779 -682402388 -682402389 -497253780#8 -497253780#7 46818468#3 46818468#4 46818468#5 46818468#6 46818468#7 46818468#8 46818468#9 420875712 315569176#1 420875713#1 227064556#0 227064556#1 227064556#2 227064556#3 227064556#5 227064553 420584215 221759323#1 221759323#2 335394629 497258436 335394630 -227064555#5 -227064555#4" />
    </vehicle>
    <vehicle depart="19.10" departLane="best" id="truck20" type="truck_truck">
        <route edges="-636728275 5677049 -221585918#12 -221585918#11 -221585918#10 -221585918#9 -221585918#8 -221585918#7 -221585918#6 -221585918#5 -221585918#4 -221585918#2 -221585918#1 -221585918#0 221585913 -221753948#2 -221753948#1 -221753948#0 -221753933 -221753950 221753947 -420315112 -221688252 497256111 497256112 221688255#0 221688255#1 221688254 222246285#0 222246285#1 222246285#2 221696386#0 221696386#1 221696386#2 221696386#3 221696386#4 221696386#5 221696386#6 221696386#7 221696386#8 221696386#9 221696386#10 221696386#11 221696386#12 221696386#13 221696386#14 221696386#15 421123037 587355763 587355765 -221795719#1 -221795719#0 -46818902#0 420884512 420884510 78288186 221607367" />
    </vehicle>
    <vehicle depart="21.97" departLane="best" id="truck23" type="truck_truck">
        <route edges="46835336#6 46835336#7 46835336#8 46835336#9 46835336#10 46835336#11 46835336#12 23334074#0 23334074#1 23334074#2 420567582 420567577 420567578 420567573 420567579 37396284 455014438 420572575 221604539 222248833 -222246978 -386201385 -460576121 -630677037 -630677041 -460576120 -221696387 -420572573 420571186 221605483#0 221605483#1 421754612 420571190#1 46788744#0 46788744#1 46788744#2 222247847#0 222247847#1 222247847#2 -420886405 -222258273#8 -222258273#7 -222258273#6 -222258273#5 -222258273#4 -222258273#3 -222258273#2 -222258273#1 -222258273#0 -464137215 -5678919#1 -5678919#0 78288188#0 78288188#1 78288188#2 78288188#3 78288188#4 5705730 227074775#0 227074775#1 227074775#2 68325083#0 68325083#1 68325083#2 587355778#0 587355778#1 587355778#2 587355778#3 227074776#0 227074776#1 227074776#2 227074776#3 227074776#4 -227064529#1 -227064529#0 221753949#0 221753949#1 221753935 -221585907#3 -221585907#2 -221585907#1 -221585907#0 -587355768 5675992 276145111 276145117#0 276145117#1 471943034#0 471943034#1 471943034#2 471943034#3 471943034#4 321542908 682886111#0 227074787#0 227074787#2 682886115#0 682886115#1 227074786#0 227074786#2 227074786#3 227074786#4 227074786#5 227074786#6 227074786#7 227074786#8 227074786#9 227074786#10 227074786#15" />
    </vehicle>
    <vehicle depart="22.92" departLane="best" id="truck24" type="truck_truck">
        <route edges="227064531#2 222246284 421116791 535252392 421116792 421116789#0 421116789#1 421116789#2 37624370#1 421116788 221688254 222246285#0 222246285#1 222246285#2 221696386#0 221696386#1 221696386#2 221696386#3 221696386#4 221696386#5 221696386#6 221696386#7 221696386#8 221696386#9 221696386#10 221696386#11 221696386#12 206610786#15 206610786#16 206610786#17 206610786#18 206610786#19 497257600 497257603#0 497257603#1 497257603#2 497257603#3 497257603#4 497257603#5 497257603#8 497257603#9 221585916#6 221585916#7 221585916#8 221585916#9 221585916#10 221585916#11 221585916#12 227074763 -440633382#1 -440633382#0 5675586 -227074765#0 -68523760#2" />
    </vehicle>
    <vehicle depart="25.79" departLane="best" id="truck27" type="truck_truck">
        <route edges="-5675937 5679854#3 5679854#4 5679854#5 680852336 221753933 221753948#0 221753948#1 221753948#2 -221585913 221585918#0 221585918#1 221585918#2 221585918#4 221585918#5 221585918#6 221585918#7 221585918#8 221585918#9 5675610" />
    </vehicle>
    <vehicle depart="27.70" departLane="best" id="truck29" type="truck_truck">
        <route edges="680830803 420346486#0 420346486#1 420346488#0 420346488#1 420346488#2 420346490#0 420346490#1 420346490#2 420346490#3 491160987 420346485 446800952#0 446800952#1 420584902#0 420584902#1 420883009#0 420883009#1 420883007#0 420883007#1 222266013 620132897 420883003 -420880633 -222254955 -420880629 -420567581 -420567574 -420567572 473475837#0 473475837#1 46863691#5" />
    </vehicle>
    <vehicle depart="34.38" departLane="best" id="truck36" type="truck_truck">
        <route edges="5680972#0 221696377#1 420319836#3 680852624 -420875711 -46818468#8 -46818468#7 -46818468#6 -46818468#5 -46818468#4 -46818468#3 -46818468#2 -46818468#1 -46818468#0 78288188#0 78288188#1 78288188#2 78288188#3 78288188#4 5679460#0 39974314" />
    </vehicle>
    <vehicle depart="35.34" departLane="best" id="truck37" type="truck_truck">
        <route edges="183103118#0 183103118#1 183103118#2 5678784#17 5678784#18 5678784#19 23334074#2 420567582 420567577 420567578 420567573 420567579 37396284 455014438 420572575 221604539 222248833 -222246978 -386201385 -460576121 -630677037 -630677041 -460576120 -221696387 -420572573 420571186 221605483#0 221605483#1 421754612 420571190#1 496990716 46121873#0 46121873#1 46121873#2 5675963#0 5675963#1 5675963#2 5675963#3 5675963#4 5675963#5 5675963#6 5675963#7 5675963#8 5675963#9 460584836#0 460584836#1 204842637#0 204842637#1 204842637#3" />
    </vehicle>
    <vehicle depart="36.29" departLane="best" id="truck38" type="truck_truck">
        <route edges="451915591#1 -420584203 -420584209 -420584211 -421149636#1 -421149636#0 204843025#0 204843025#1 542169859 420875693#1 420875693#2 221759326 496980629#0 496980629#1 420319835#0 420319835#1 315569175#0 315569175#1 315569175#2 315569175#3 315569175#4 315569175#5 315569175#6 420315111#0 420315111#1 421084097 420304910#0 420304910#1 420304910#2 420304890#0 420304890#1 46865764#0 46865764#2 46865764#3 46865764#4 46865764#5 46865764#6 46865764#7 46865764#8 46865764#9 46865764#10 5680120#6 221585908#5" />
    </vehicle>
    <vehicle depart="40.11" departLane="best" id="truck42" type="truck_truck">
        <route edges="-432552966#2 -432552966#1 -432552966#0 5676994#16 5676994#17 5676994#18 221696381#0 221696381#1 221696381#2 497256110#0 497256110#1 497256109 221696378#0 221696378#1 420319834#0 420319834#1 420319834#2 420319831#1 421116787#0 421116787#1 421116787#2 421116787#3 421116785 420319836#0 420319836#1 420319836#2 420319836#3 680852624 221759333#0 221759333#1 497254142 542169858 420875685 420875672 420875656#0 420875656#1 420875678 420875696 542169861#0 542169861#1 420883011 222251427 420883013 -420880630 -420880632 -421151334#1 -421151334#0 -420880633 -222254955 -420880629 -420567581 -420567574 -420567572 -420567580 -420567576 -221603657 -420567575 -420567579 -420567573 -420567578 -420567577 -420567582 -23334074#2 -23334074#1 -23334074#0 46835336#13 46835336#14 46835336#15 46835336#17 46835336#18 5677340#3 5679816 46835362" />
    </vehicle>
    <vehicle depart="41.07" departLane="best" id="truck43" type="truck_truck">
        <route edges="-232270200#0 -587355743 -239626768 -232270204 -420886409 -420886410#0 420886411 222248832#1 222248832#2 222248832#3 5676937 5675963#0 5675963#1 5675963#2 5675963#3 5675963#4 5675963#5 5675963#6 5675963#7 5675963#8 5675963#9 460584836#0 460584836#1 460584837#1 460584837#2 460584837#3 460584837#4 460584837#5 460584837#6 46818468#2 46818468#3 46818468#4 46818468#5 46818468#6 46818468#7 46818468#8 23334091#0 23334091#1" />
    </vehicle>
    <vehicle depart="42.02" departLane="best" id="truck44" type="truck_truck">
        <route edges="68523776-AddedOnRampEdge 68523776 97010373#0 97010373#1 -420584214#1 -421118181#1 -421118181#0 -420584208 -420584213 -420584207 -420584203 -420584209 -420584211 -421149636#1 -421149636#0 204843025#0 204843025#1 542169859 420875693#1 420875693#2 -420875711 23334091#0 23334091#1 5682004#0 447792828#2 447792828#3" />
    </vehicle>
    <vehicle depart="42.98" departLane="best" id="truck45" type="truck_truck">
        <route edges="625647896#1 625647896#2 5681544#1 -525679230#1 -525679230#0 483704093 451915595 483704094#0 -420584213 -420584207 -420584203 -420584209 -420584211 -421149636#1 -421149636#0 204843025#0 204843025#1 542169859 420875693#1 420875693#2 221759326 496980629#0 496980629#1 420319835#0 420319835#1 421116789#0 421116789#1 421116789#2 37624370#1 421116788 -221688255#1 -221688255#0 -497256112 -497256111 221688252 420315112 -221753947 221753950 221753933 221753948#0 221753948#1 221753948#2 37183340#0 5679854#7 5679854#8 5679854#9 5679854#10" />
    </vehicle>
    <vehicle depart="48.71" departLane="best" id="truck51" type="truck_truck">
        <route edges="5679924 46863844#1 46863844#2 46863844#3 46863844#4 46863844#5 46863844#6 46863844#7 46863844#8 46863844#9 46863844#10 46863844#11 46863844#12 46863844#15 227074799#3 227074799#4 450814751 40416345 587355787#2 587355787#3 524340771#0 524340771#1 524340771#2 524340771#3 524340771#4 524340771#6 524340771#7 587355786 222254952#0 222254952#1 222254955 420880633 221759331#1 421151334#1 420880634 420880630 420883015 496984337 420883012 420883010 420875688 420875687 204843025#0 204843025#1 542169859 420875693#1 420875693#2 221759326 496980629#0 496980629#1 420319835#0 420319835#1 315569175#0 315569175#1 315569175#2 315569175#3 315569175#4 315569175#5 315569175#6 420315111#0 420315111#1 421084097 420304910#0 420304910#1 420304910#2 420304890#0 420304890#1 420304895 420304902#1 420304892 5681577#4 5681577#5 221585909#0 221585909#1" />
    </vehicle>
    <vehicle depart="49.66" departLane="best" id="truck52" type="truck_truck">
        <route edges="420346486#1 5675573#6 5675573#7 5675573#8 -420346448#2 -420346448#1 -420346448#0 -420346497 -420346496 -40785410#0 -5679441 46863844#0 -5679924" />
    </vehicle>
    <vehicle depart="50.62" departLane="best" id="truck53" type="truck_truck">
        <route edges="5680880#3 5680880#4 421116791 535252392 421116792 421116787#0 421116787#1 421116787#2 421116787#3 421116785 420319836#0 420319836#1 420319836#2 420319836#3 680852624 221759333#0 221759333#1 497254142 542169858 420875685 420875672 420875656#0 420875656#1 420875678 420875696 542169861#0 542169861#1 420883011 222251427 420883013 -420880630 -420880632 -421151334#1 -421151334#0 -420880633 -222254955 -420880629 -420567581 -420567574 -420567572 -420567580 -420567576 -221603657 -420567575 -420567579 -420567573 -420567578 -420567577 -420567582 -23334074#2 -23334074#1 -23334074#0 46835336#13 5680024#3 5680024#4" />
    </vehicle>
    <vehicle depart="58.26" departLane="best" id="truck61" type="truck_truck">
        <route edges="221602117#1 221602115#0 46838302#1 5677945#0 5677945#1 262798838 308338860 40785412 40785410#0 40785410#1 227074809 420346441 420346448#1 420346448#2 420346448#3 420346448#4 420346446 420346439 420346447#1 420346447#2 420346444#1 587355787#0 587355787#1 587355787#2 587355787#3 524340771#0 524340771#1 524340771#2 524340771#3 524340771#4 524340771#6 524340771#7 587355786 222254952#0 222254952#1 40416344#0 40416344#1 5680646 -420880037 -420880046#0 -139919720#1 -139919720#0 500534706 110155730#0 110155730#2 421754837 511768217 456391963#0 456391963#1 456391963#2 110155732 420571190#1 46788744#0 46788744#1 46788744#2 222247847#0 222247847#1 222247847#2 420886412 420886410#1 232270204 239626768 587355743 232270199 -639763613#1 -232270200#2" />
    </vehicle>
    <vehicle depart="59.21" departLane="best" id="truck62" type="truck_truck">
        <route edges="5680024#4 5680167#14 23334074#1 23334074#2 420567582 420567577 420567578 420567573 420567579 37396284 455014438 420572575 221604539 222248833 -222246978 -386201385 -460576121 -630677037 -630677041 -460576120 -221696387 -420572573 420571186 221605483#0 221605483#1 421754612 420571190#1 46788744#0 46788744#1 46788744#2 222247847#0 222247847#1 222247847#2 -420886405 -222258273#8 -222258273#7 -222258273#6 -222258273#5 -222258273#4 -222258273#3 -222258273#2 -222258273#1 -222258273#0 -464137215 -5678919#1 -5678919#0 78288188#0 78288188#1 78288188#2 78288188#3 78288188#4 5705730" />
    </vehicle>
    <vehicle depart="61.12" departLane="best" id="truck64" type="truck_truck">
        <route edges="5676939#0 5676939#1 5676939#2 5676939#3 -420886409 -420886410#0 420886411 222248832#1 222248832#2 222248832#3 5676937 46863798 464255710 464255708 37394898#3 37394898#4 37394899#0 37394899#1 37394899#2 -46818905#6" />
    </vehicle>
    <vehicle depart="62.08" departLane="best" id="truck65" type="truck_truck">
        <route edges="39956193#2 -321542908 -471943034#4 -471943034#3 -471943034#2 -471943034#1 -471943034#0 -471943031#4 -471943031#3 -471943031#2 276067484 -221753936#1 -221753936#0 -221753949#1 -221753949#0 227064529#0 227064529#1 -227074776#4 -227074776#3 -227074776#2 -227074776#1 -227074776#0 -587355778#3 -587355778#2 -587355778#1 -587355778#0 -68325083#2 -68325083#1 -68325083#0 -227074775#2 -227074775#1 -227074775#0 -5705730 5679460#0 5679460#1 46817493#0 46817493#1 46817493#2 46818468#1 46818468#2 -497253780#6 -497253780#5 -497253780#4 654744274#2 654744274#3 654744274#4 654744274#5 654744274#6 654744274#7 227064552 440633451 421149634 420875672 420875656#0 420875656#1 420875678 420875696 542169861#0 542169861#1 420883011 222251427 420883013 -420880630 -420880632 420880044 420880042#0 420880042#1 46865766 456407470" />
    </vehicle>
    <vehicle depart="63.03" departLane="best" id="truck66" type="truck_truck">
        <route edges="183103118#1 183103118#2 5678784#17 5678784#18 5678784#19 23334074#2 420567582 420567577 420567578 420567573 420567579 37396284 455014438 420572575 221604539 222248833 -222246978 -386201385 -460576121 -630677037 -630677041 -460576120 -221696387 -420572573 -420572572 -497561531#0 -495315410 -455201237#1 -455201237#0 -675320846 -46137554#1 -46137554#0 46137555#0 545291578#1 545291578#1-AddedOffRampEdge 46137556 222258266#0 222258266#1 222258266#2 232270204 239626768 -239626765 -5676705 239626764#0 239626764#1 -5680052#0 456244378#0 456244378#1 -154513050#1 -5677150#0 -456244378#0 5680052#0" />
    </vehicle>
    <vehicle depart="69.72" departLane="best" id="truck73" type="truck_truck">
        <route edges="221777100#1 221777100#2 221777100#3 432552977 5678101#2 5678101#3 5678101#4 5678101#5 5678101#6 5678101#7 5678101#8 5678101#9 5678101#10 5678101#11 5678101#12 5678101#13 5678101#14 5678101#15 5678101#16 5677049 -221585918#12 -221585918#11 -221585918#10 -221585918#9 -221585918#8 5680361#0 5680361#1 46774534#6 46774534#7 5679904#3 5679904#4 420304910#2 46786508" />
    </vehicle>
    <vehicle depart="76.40" departLane="best" id="truck80" type="truck_truck">
        <route edges="5681678#3 315569175#5 315569175#6 420315113#0 420315113#1 420319832#9 420319832#10 420319832#11 420319832#12 420319832#13 420319834#0 420319834#1 420319834#2 420319831#1 421116787#0 421116787#1 421116787#2 421116787#3 421116785 420319836#0 420319836#1 420319836#2 420319836#3 680852624 221759333#0 221759333#1 497254142 542169858 420875685 421149636#0 421149636#1 421118180 420584209 420584206 420584207 420584210 420584208 420584212 421118181#1 420584214#1 97010395#0 452286948#1 97010425#2 154508307 420583320 68523758 421118179 5681903 46137551#0 46137551#1" />
    </vehicle>
    <vehicle depart="82.13" departLane="best" id="truck86" type="truck_truck">
        <route edges="249968535#0 276024637#5 276024637#6 432552976 -432554453#12 -432554453#11 -432554453#10 -432554453#9 -432554453#8 -432554453#4 -432554453#3 -432554453#2 -432554453#1 -432554453#0 221725601#0 221725601#1 221725601#2 221725601#3 -227074765#3 -227074765#2 -227074765#1 -227074765#0 -68523760#2 -68523760#1 -68523760#0 -471943034#4 -471943034#3 -471943034#2 -471943034#1 -471943034#0 -471943031#4 -471943031#3 -471943031#2 276067484 -221753936#1 -221753936#0 -221753949#1 -221753949#0 227064529#0 227064529#1 -227074776#4 -227074776#3 -227074776#2 -227074776#1 -227074776#0 -587355778#3 -587355778#2 -587355778#1 -587355778#0 -68325083#2 -68325083#1 -68325083#0 -227074775#2 -227074775#1 -227074775#0 -5705730 -78288188#4 -78288188#3 -78288188#2 -78288188#1 -78288188#0 5678919#0 5678919#1 464137215 222258273#0 222258273#1 222258273#2 222258273#3 222258273#4 222258273#5 222258273#6 222258273#7 222258273#8 222258273#9 420886412 420886410#1 25564006#0 25564006#1 25564006#2 222248831#0 222248831#1 222248831#2 451934642 222258278" />
    </vehicle>
    <vehicle depart="85.00" departLane="best" id="truck89" type="truck_truck">
        <route edges="276043635 5680120#3 5680120#4 5680120#5 5680120#6 5680120#7 221586639#1 221586639#2" />
    </vehicle>
    <vehicle depart="85.95" departLane="best" id="truck90" type="truck_truck">
        <route edges="122625696 122625696-AddedOffRampEdge 671273489 5674284 23334074#0 23334074#1 23334074#2 420567582 420567577 420567578 420567573 420567579 420567575 221603657 420567576 420567580 420567572 420567574 420567581 420880629 222254955 420880633 221759331#1 421151334#1 420880634 420880630 420883015 496984337 420883012 420883010 420875688 420875687 204843025#0 204843025#1 542169859 420875693#1 420875693#2 221759326 496980629#0 496980629#1 420319835#0 420319835#1 421116789#0 421116789#1 421116789#2 37624370#1 421116788 -221688255#1 -221688255#0 -497256112 -497256111 221688252 420315112 -221753947 221753950 221753933 221753948#0 221753948#1 221753948#2 -221585913 221585918#0 221585918#1 221585918#2 221585918#4 221585918#5 221585918#6 221585918#7 221585918#8 221585918#9 221585918#10 221585918#11 221585918#12 636728274#0 -636728275 -5678101#16 -5678101#15 -5678101#14 -5678101#13 5681328" />
    </vehicle>
    <vehicle depart="86.91" departLane="best" id="truck91" type="truck_truck">
        <route edges="334262992#2 -421118181#1 -421118181#0 -420584208 -420584213 -420584207 -420584203 -420584209 -420584211 -421149636#1 -421149636#0 204843025#0 204843025#1 542169859 420875693#1 420875693#2 221759326 496980629#0 496980629#1 420319835#0 420319835#1 315569175#0 315569175#1 315569175#2 315569175#3 315569175#4 315569175#5 315569175#6 420315111#0 420315111#1 421084097 221585906#3 221585906#4 221585906#5 5679854#11 5679854#12 5679854#13" />
    </vehicle>
    <vehicle depart="87.86" departLane="best" id="truck92" type="truck_truck">
        <route edges="450610492#24 450610492#25 450610492#26 450610492#27 221688252 420315112 -221753947 221753950 221753933 221753948#0 221753948#1 221753948#2 -221585913 221585918#0 221585918#1 221585918#2 221585918#4 221585918#5 221585918#6 221585918#7 -227074781#19 -227074781#18 -227074781#17 -227074781#16 -227074781#15 -227074781#14 -227074781#13" />
    </vehicle>
    <vehicle depart="97.41" departLane="best" id="truck102" type="truck_truck">
        <route edges="-483140981#1 -483140981#0 483140982#1 46818468#0 46818468#1 46818468#2 46818468#3 46818468#4 46818468#5 420875699 420875707#0 420875707#1 420875709#0 420875709#1 227074779#0 227074779#1 495491355#0 495491355#1 222246540#0 222246540#1 222246540#2 -222247159 221696386#3" />
    </vehicle>
    <vehicle depart="99.32" departLane="best" id="truck104" type="truck_truck">
        <route edges="440633404#0 183103118#1 183103118#2 5678784#17 5678784#18 5678784#19 23334074#2 420567582 420567577 420567578 420567573 420567579 37396284 455014438 420572575 221604539 222248833 -222246978 -386201385 -460576121 -630677037 -630677041 -460576120 -221696387 -420572573 420571186 221605483#0 221605483#1 421754612 420571190#1 46788744#0 46788744#1 46788744#2 222247847#0 222247847#1 222247847#2 -420886405 -222258273#8 -222258273#7 -222258273#6 -222258273#5 -222258273#4 -222258273#3 -222258273#2 -222258273#1 -222258273#0 -464137215 -5678919#1 -5678919#0 78288188#0 78288188#1 78288188#2 78288188#3 78288188#4 5705730 46141624 5677924 221795719#0 221795719#1 -587355765 -587355763 226933462#0 226933462#1 5676656#4 5676656#5" />
    </vehicle>
    <vehicle depart="101.23" departLane="best" id="truck106" type="truck_truck">
        <route edges="420346499 308338862 221602117#0 460581657 5680807#0 5680807#1 308338860 40785412 40785410#0 40785410#1 227074809 420346441 420346448#1 420346448#2 420346448#3 420346448#4 420346446 420346439 420346447#1 420346447#2 420346444#1 587355787#0 587355787#1 587355787#2 587355787#3 524340771#0 524340771#1 524340771#2 524340771#3 524340771#4 524340771#6 524340771#7 587355786 222254952#0 222254952#1 40416344#0 40416344#1 5680646 46137501#1 455014440#0 455014440#1 221723367 420880635 288862240#0 288862240#1 288862240#2 288862240#3 288862240#4 288862240#5 288862240#6 288862240#7 288862240#8 420875699 420875707#0 420875707#1 420875709#0 420875709#1 227074779#0 227074779#1 495491356#1 495491356#2 221696386#8 221696386#9 221696386#10 221696386#11 221696386#12 206610786#15 206610786#16 206610786#17 206610786#18 206610786#19 497257600 5679708#0 5679708#1 5679708#2" />
    </vehicle>
    <vehicle depart="104.10" departLane="best" id="truck109" type="truck_truck">
        <route edges="464255710 464255708 -37394898#2 -37394898#1 -37394898#0 421121616 421121610 222246981#0 222246981#1 421755067#0 421755067#1 421755066 221723366 139919720#0 139919720#1 420880046#0 420880046#1 420880045 473475839 527223926 -222279148 420880044 420880042#0 420880042#1 420880041 420880039 451915588 496982424 451915590 451915592 5677511 525679230#0 525679230#1 525679230#2 525679230#3 525679230#4 525679230#5 525679230#6 494221659#0 494221659#1 494221659#2 494221659#3 494221659#4 494221659#5 494221659#6 494221659#7 494221659#8" />
    </vehicle>
    <vehicle depart="108.87" departLane="best" id="truck114" type="truck_truck">
        <route edges="-5680631#7 -5680631#6 5680955#1 46863691#4 46863691#5 46863691#6 5680646 46137501#1 455014440#0 455014440#1 221723367 420880635 288862240#0 288862240#1 288862240#2 288862240#3 288862240#4 288862240#5 654744274#7 227064552 440633451 601732568#0 464137214#9 542169858" />
    </vehicle>
    <vehicle depart="113.65" departLane="best" id="truck119" type="truck_truck">
        <route edges="78288188#3 78288188#4 5679460#0 5679460#1 46817493#0 46817493#1 46817493#2 46817493#3 46817493#4 46817493#5 46817493#6 46817493#7 46817493#8 46817493#9 46817493#10 46817493#11 46817493#12 46817493#13 46817493#14 46817493#15 46817493#16 -222248832#3 -222248832#2 -222248832#1 -222248832#0 -222247847#2 -222247847#1 -222247847#0 37523532#0 37523532#1 68523771 68523772" />
    </vehicle>
    <vehicle depart="114.60" departLane="best" id="truck120" type="truck_truck">
        <route edges="-308340267#1 -308340267#0 -239629078 5680476#7 483140979 483140982#1 46818468#0 46818468#1 46818468#2 46818468#3 46818468#4 46818468#5 420875699 420875707#0 420875707#1 420875709#0 420875709#1 222246543#2 222246543#3 222246543#4 420626018 107391104#0 107391104#1" />
    </vehicle>
    <vehicle depart="115.56" departLane="best" id="truck121" type="truck_truck">
        <route edges="5680116#0 221601322#15 221601322#16 -497382067#0 -451915594#1 -451915594#0 222258277 -451915592 -451915590 -496982424 -451915588 -222251431 -420880043 -420880040 -420880042#0 -23334090 222279148 -527223926 -221731899 -420880045 -420880037 -420880046#0 -139919720#1 5680631#1 5681199#0 -46863691#5 -46863691#4 -46863691#3 -46863691#1 -46863691#0 221604539 221605486 5029221 46121855 46121864#1 46121864#2 46788762 5678318 5677340#0 5677340#1 5680167#10 5680167#11 5680167#12" />
    </vehicle>
    <vehicle depart="116.51" departLane="best" id="truck122" type="truck_truck">
        <route edges="227064529#1 -227074776#4 -227074776#3 -227074776#2 -227074776#1 -227074776#0 -587355778#3 -587355778#2 -587355778#1 -587355778#0 -68325083#2 -68325083#1 -68325083#0 -227074775#2 -227074775#1 -227074775#0 -5705730 5679460#0 5679460#1 46817493#0 46817493#1 46817493#2 46817493#3 -5677459" />
    </vehicle>
    <vehicle depart="126.06" departLane="best" id="truck132" type="truck_truck">