<routes xmlns:xsi="http://www.w3.org/2001/XMLSchema-instance" xsi:noNamespaceSchemaLocation="http://sumo.dlr.de/xsd/routes_file.xsd">
    <vType id="truck_truck" vClass="truck">
    </vType>
    <trip depart="0.00" departLane="best" from="46835349#6" id="truck0" to="-221603657" type="truck_truck" />
    <trip depart="0.96" departLane="best" from="219964428#4" id="truck1" to="112168176" type="truck_truck" />
    <trip depart="2.87" departLane="best" from="5680429#0" id="truck3" to="-420584214#1" type="truck_truck" />
    <trip depart="3.82" departLane="best" from="276043635" id="truck4" to="-221753935" type="truck_truck" />
    <trip depart="5.73" departLane="best" from="-221586643#1" id="truck6" to="-59707790" type="truck_truck" />
    <trip depart="6.69" departLane="best" from="46863648#2" id="truck7" to="452284609" type="truck_truck" />
    <trip depart="7.64" departLane="best" from="-587067527#1" id="truck8" to="46786517" type="truck_truck" />
    <trip depart="8.60" departLane="best" from="5678101#14" id="truck9" to="-154513050#0" type="truck_truck" />
    <trip depart="9.55" departLane="best" from="5677949#8" id="truck10" to="515885152#4" type="truck_truck" />
    <trip depart="11.46" departLane="best" from="578129950#1" id="truck12" to="222258268" type="truck_truck" />
    <trip depart="12.42" departLane="best" from="-420346447#2" id="truck13" to="-432552974" type="truck_truck" />
    <trip depart="13.37" departLane="best" from="5678919#0" id="truck14" to="46818463" type="truck_truck" />
    <trip depart="14.33" departLane="best" from="5677950#5" id="truck15" to="5675664#2" type="truck_truck" />
    <trip depart="15.28" departLane="best" from="432552979#1" id="truck16" to="630677037" type="truck_truck" />
    <trip depart="16.24" departLane="best" from="5678387#2" id="truck17" to="46835336#21" type="truck_truck" />
    <trip depart="19.10" departLane="best" from="-636728275" id="truck20" to="221607367" type="truck_truck" />
    <trip depart="20.06" departLane="best" from="-37195087#2" id="truck21" to="145079213#2" type="truck_truck" />
    <trip depart="22.92" departLane="best" from="227064531#2" id="truck24" to="-68523760#2" type="truck_truck" />
    <trip depart="23.88" departLane="best" from="183916203#0" id="truck25" to="5681940#2" type="truck_truck" />
    <trip depart="24.83" departLane="best" from="46846379#0" id="truck26" to="46818904#11" type="truck_truck" />
    <trip depart="25.79" departLane="best" from="-5675937" id="truck27" to="5675610" type="truck_truck" />
    <trip depart="26.74" departLane="best" from="-497257603#8" id="truck28" to="23334061#6" type="truck_truck" />
    <trip depart="28.65" departLane="best" from="451910413#2" id="truck30" to="497256111" type="truck_truck" />
    <trip depart="29.61" departLane="best" from="5678784#15" id="truck31" to="5677397#9" type="truck_truck" />
    <trip depart="30.56" departLane="best" from="-654744274#2" id="truck32" to="-221753949#1" type="truck_truck" />
    <trip depart="31.52" departLane="best" from="221696379" id="truck33" to="221585914#23" type="truck_truck" />
    <trip depart="32.47" departLane="best" from="-5681578" id="truck34" to="5682184#13" type="truck_truck" />
    <trip depart="33.43" departLane="best" from="5680024#1" id="truck35" to="221759331#1" type="truck_truck" />
    <trip depart="34.38" departLane="best" from="5680972#0" id="truck36" to="39974314" type="truck_truck" />
    <trip depart="36.29" departLane="best" from="451915591#1" id="truck38" to="221585908#5" type="truck_truck" />
    <trip depart="37.25" departLane="best" from="23334091#2" id="truck39" to="110155732" type="truck_truck" />
    <trip depart="38.20" departLane="best" from="78288187#0" id="truck40" to="421118179" type="truck_truck" />
    <trip depart="40.11" departLane="best" from="-432552966#2" id="truck42" to="46835362" type="truck_truck" />
    <trip depart="41.07" departLane="best" from="-232270200#0" id="truck43" to="23334091#1" type="truck_truck" />
    <trip depart="42.02" departLane="best" from="68523776-AddedOnRampEdge" id="truck44" to="447792828#3" type="truck_truck" />
    <trip depart="42.98" departLane="best" from="625647896#1" id="truck45" to="5679854#10" type="truck_truck" />
    <trip depart="44.89" departLane="best" from="489437292#10" id="truck47" to="451413253#3" type="truck_truck" />
    <trip depart="46.80" departLane="best" from="-432552979#0" id="truck49" to="347014805#0" type="truck_truck" />
    <trip depart="47.75" departLane="best" from="347014805#6" id="truck50" to="573061411" type="truck_truck" />
    <trip depart="48.71" departLane="best" from="5679924" id="truck51" to="221585909#1" type="truck_truck" />
    <trip depart="49.66" departLane="best" from="420346486#1" id="truck52" to="-5679924" type="truck_truck" />
    <trip depart="51.57" departLane="best" from="221586638#0" id="truck54" to="46863673#2" type="truck_truck" />
    <trip depart="52.53" departLane="best" from="46788753#0" id="truck55" to="-5675532" type="truck_truck" />
    <trip depart="53.48" departLane="best" from="5676800" id="truck56" to="451910413#9" type="truck_truck" />
    <trip depart="55.39" departLane="best" from="-108166470" id="truck58" to="222246285#2" type="truck_truck" />
    <trip depart="57.30" departLane="best" from="5680024#8" id="truck60" to="5678756#7" type="truck_truck" />
    <trip depart="58.26" departLane="best" from="221602117#1" id="truck61" to="-232270200#2" type="truck_truck" />
    <trip depart="59.21" departLane="best" from="5680024#4" id="truck62" to="5705730" type="truck_truck" />
    <trip depart="60.17" departLane="best" from="-239629078" id="truck63" to="5677037#11" type="truck_truck" />
    <trip depart="61.12" departLane="best" from="5676939#0" id="truck64" to="-46818905#6" type="truck_truck" />
    <trip depart="63.03" departLane="best" from="183103118#1" id="truck66" to="5680052#0" type="truck_truck" />
    <trip depart="63.99" departLane="best" from="276043641#0" id="truck67" to="-686370900" type="truck_truck" />
    <trip depart="64.94" departLane="best" from="432554456#1" id="truck68" to="5675664#3" type="truck_truck" />
    <trip depart="65.90" departLane="best" from="-5680476#3" id="truck69" to="221759324#1" type="truck_truck" />
    <trip depart="66.85" departLane="best" from="68523771" id="truck70" to="46865765#11" type="truck_truck" />
    <trip depart="70.67" departLane="best" from="-654744279" id="truck74" to="110277551#2" type="truck_truck" />
    <trip depart="73.54" departLane="best" from="5679708#17" id="truck77" to="-37394899#1" type="truck_truck" />
    <trip depart="74.49" departLane="best" from="-78288188#0" id="truck78" to="488941121#10" type="truck_truck" />
    <trip depart="75.45" departLane="best" from="-5707635#0" id="truck79" to="-46865764#4" type="truck_truck" />
    <trip depart="76.40" departLane="best" from="5681678#3" id="truck80" to="46137551#1" type="truck_truck" />
    <trip depart="77.36" departLane="best" from="39612790#0" id="truck81" to="5677584" type="truck_truck" />
    <trip depart="79.27" departLane="best" from="276050433" id="truck83" to="40785410#1" type="truck_truck" />
    <trip depart="80.22" departLane="best" from="5673953" id="truck84" to="493933673#0" type="truck_truck" />
    <trip depart="81.18" departLane="best" from="658936642#2" id="truck85" to="-432552981#1" type="truck_truck" />
    <trip depart="82.13" departLane="best" from="249968535#0" id="truck86" to="222258278" type="truck_truck" />
    <trip depart="84.04" departLane="best" from="-5678753" id="truck88" to="37434658#4" type="truck_truck" />
    <trip depart="85.00" departLane="best" from="276043635" id="truck89" to="221586639#2" type="truck_truck" />
    <trip depart="87.86" departLane="best" from="450610492#24" id="truck92" to="-227074781#13" type="truck_truck" />
    <trip depart="88.82" departLane="best" from="97010395#0" id="truck93" to="5678784#25" type="truck_truck" />
    <trip depart="90.73" departLane="best" from="5678929#0" id="truck95" to="-5678262#1" type="truck_truck" />
    <trip depart="91.68" departLane="best" from="239626765" id="truck96" to="-23334074#1" type="truck_truck" />
    <trip depart="93.59" departLane="best" from="183103118#1" id="truck98" to="5677459" type="truck_truck" />
    <trip depart="95.50" departLane="best" from="578129950#1" id="truck100" to="68523765#5" type="truck_truck" />
    <trip depart="96.46" departLane="best" from="451910412#2" id="truck101" to="552015559#0" type="truck_truck" />
    <trip depart="97.41" departLane="best" from="-483140981#1" id="truck102" to="221696386#3" type="truck_truck" />
    <trip depart="99.32" departLane="best" from="440633404#0" id="truck104" to="5676656#5" type="truck_truck" />
    <trip depart="100.28" departLane="best" from="-227074781#7" id="truck105" to="46774534#3" type="truck_truck" />
    <trip depart="101.23" departLane="best" from="420346499" id="truck106" to="5679708#2" type="truck_truck" />
    <trip depart="102.19" departLane="best" from="-494221659#8" id="truck107" to="587067527#1" type="truck_truck" />
    <trip depart="103.14" departLane="best" from="-37394898#0" id="truck108" to="-5680913#0" type="truck_truck" />
    <trip depart="105.05" departLane="best" from="-68325083#1" id="truck110" to="-46786522" type="truck_truck" />
    <trip depart="106.01" departLane="best" from="5680361#0" id="truck111" to="204842637#0" type="truck_truck" />
    <trip depart="106.96" departLane="best" from="276024637#27" id="truck112" to="46774534#1" type="truck_truck" />
    <trip depart="107.92" departLane="best" from="421084098" id="truck113" to="5681891#0" type="truck_truck" />
    <trip depart="108.87" departLane="best" from="-5680631#7" id="truck114" to="542169858" type="truck_truck" />
    <trip depart="110.78" departLane="best" from="479748558#0" id="truck116" to="221725601#0" type="truck_truck" />
    <trip depart="111.74" departLane="best" from="221696381#1" id="truck117" to="5676766" type="truck_truck" />
    <trip depart="112.69" departLane="best" from="-295384457#0" id="truck118" to="39956206" type="truck_truck" />
    <trip depart="114.60" departLane="best" from="-308340267#1" id="truck120" to="107391104#1" type="truck_truck" />
    <trip depart="115.56" departLane="best" from="5680116#0" id="truck121" to="5680167#12" type="truck_truck" />
    <trip depart="117.47" departLane="best" from="5678442#25" id="truck123" to="524340776#4" type="truck_truck" />
    <trip depart="119.38" departLane="best" from="46863844#10" id="truck125" to="-154513056" type="truck_truck" />
    <trip depart="121.29" departLane="best" from="46865768#2" id="truck127" to="5682056#1" type="truck_truck" />
    <trip depart="122.24" departLane="best" from="-46772625#6" id="truck128" to="-464255708" type="truck_truck" />
    <trip depart="124.15" departLane="best" from="206610786#6" id="truck130" to="46818468#2" type="truck_truck" />
    <trip depart="125.11" departLane="best" from="530568998#1" id="truck131" to="-654744274#4" type="truck_truck" />
    <trip depart="126.06" departLane="best" from="46835336#22" id="truck132" to="221585911#1" type="truck_truck" />
    <trip depart="127.02" departLane="best" from="420315111#0" id="truck133" to="5680853#0" type="truck_truck" />
    <trip depart="127.97" departLane="best" from="5678784#7" id="truck134" to="-421149636#0" type="truck_truck" />
    <trip depart="128.93" departLane="best" from="276050433" id="truck135" to="221586638#5" type="truck_truck" />
    <trip depart="129.88" departLane="best" from="-148285572#1" id="truck136" to="5677205#0" type="truck_truck" />
    <trip depart="130.84" departLane="best" from="46835341#0" id="truck137" to="221585908#2" type="truck_truck" />
    <trip depart="132.75" departLane="best" from="276145112" id="truck139" to="-183916203#2" type="truck_truck" />
    <trip depart="133.70" departLane="best" from="-334341973#0" id="truck140" to="5680396" type="truck_truck" />
    <trip depart="134.66" departLane="best" from="5680703#6" id="truck141" to="452286949#1" type="truck_truck" />
    <trip depart="135.61" departLane="best" from="5678442#3" id="truck142" to="46772625#5" type="truck_truck" />
    <trip depart="136.57" departLane="best" from="-46863691#3" id="truck143" to="-46818904#9" type="truck_truck" />
    <trip depart="138.48" departLane="best" from="5677818#0" id="truck145" to="5679854#10" type="truck_truck" />
    <trip depart="141.34" departLane="best" from="5677150#0" id="truck148" to="5680419#3" type="truck_truck" />
    <trip depart="142.30" departLane="best" from="25564006#1" id="truck149" to="46835336#5" type="truck_truck" />
    <trip depart="143.25" departLane="best" from="-483140981#0" id="truck150" to="5681577#2" type="truck_truck" />
    <trip depart="144.21" departLane="best" from="5679765" id="truck151" to="641437649" type="truck_truck" />
    <trip depart="145.16" departLane="best" from="5678101#7" id="truck152" to="5680167#9" type="truck_truck" />
    <trip depart="146.12" departLane="best" from="-221586637" id="truck153" to="5676159#0" type="truck_truck" />
    <trip depart="147.07" departLane="best" from="221759320#32" id="truck154" to="5681578" type="truck_truck" />
    <trip depart="148.03" departLane="best" from="5677949#14" id="truck155" to="5679892#0" type="truck_truck" />
    <trip depart="148.98" departLane="best" from="5678101#6" id="truck156" to="221585914#19" type="truck_truck" />
    <trip depart="149.94" departLane="best" from="5677430#9" id="truck157" to="-460569807#0" type="truck_truck" />
    <trip depart="150.89" departLane="best" from="-587355778#1" id="truck158" to="5678277#6" type="truck_truck" />
    <trip depart="151.85" departLane="best" from="5677695#2" id="truck159" to="123001149#2" type="truck_truck" />
    <trip depart="152.80" departLane="best" from="-221585918#4" id="truck160" to="-5707635#2" type="truck_truck" />
    <trip depart="153.76" departLane="best" from="221753950" id="truck161" to="5679892#2" type="truck_truck" />
    <trip depart="154.71" departLane="best" from="608794060#1" id="truck162" to="221586643#1" type="truck_truck" />
    <trip depart="155.67" departLane="best" from="46835362" id="truck163" to="275389181" type="truck_truck" />
    <trip depart="156.62" departLane="best" from="654744285#2" id="truck164" to="451413253#1" type="truck_truck" />
    <trip depart="157.58" departLane="best" from="5681939#0" id="truck165" to="-464255708" type="truck_truck" />
    <trip depart="159.49" departLane="best" from="587355764#0" id="truck167" to="221585914#11" type="truck_truck" />
    <trip depart="160.44" departLane="best" from="-43242499#7" id="truck168" to="347014804#3" type="truck_truck" />
    <trip depart="161.40" departLane="best" from="5673865" id="truck169" to="221759328#3" type="truck_truck" />
    <trip depart="162.35" departLane="best" from="46788737" id="truck170" to="421123037" type="truck_truck" />
    <trip depart="163.31" departLane="best" from="227074786#2" id="truck171" to="463957168" type="truck_truck" />
    <trip depart="165.22" departLane="best" from="-111781747#3" id="truck173" to="5681383#8" type="truck_truck" />
    <trip depart="166.17" departLane="best" from="432554453#3" id="truck174" to="559907542#0" type="truck_truck" />
    <trip depart="167.13" departLane="best" from="5675784#6" id="truck175" to="489437291" type="truck_truck" />
    <trip depart="169.04" departLane="best" from="471943031#0" id="truck177" to="222246979" type="truck_truck" />
    <trip depart="169.99" departLane="best" from="221696377#0" id="truck178" to="5679471" type="truck_truck" />
    <trip depart="170.95" departLane="best" from="534164487" id="truck179" to="221725601#2" type="truck_truck" />
    <trip depart="171.90" departLane="best" from="221605483#0" id="truck180" to="276050436" type="truck_truck" />
    <trip depart="172.86" departLane="best" from="239629078" id="truck181" to="221696386#11" type="truck_truck" />
    <trip depart="173.81" departLane="best" from="-46121853#0" id="truck182" to="308338861#0" type="truck_truck" />
    <trip depart="175.72" departLane="best" from="5680695#0" id="truck184" to="46820145" type="truck_truck" />
    <trip depart="178.59" departLane="best" from="278135787" id="truck187" to="464551540#0" type="truck_truck" />
    <trip depart="179.54" departLane="best" from="46863844#16" id="truck188" to="40711969" type="truck_truck" />
    <trip depart="180.50" departLane="best" from="324751025" id="truck189" to="107391104#13" type="truck_truck" />
    <trip depart="181.45" departLane="best" from="39612790#0" id="truck190" to="5680756#1" type="truck_truck" />
    <trip depart="182.41" departLane="best" from="5677818#0" id="truck191" to="-5678278" type="truck_truck" />
    <trip depart="184.32" departLane="best" from="46835336#15" id="truck193" to="222254952#0" type="truck_truck" />
    <trip depart="185.27" departLane="best" from="5678246#0" id="truck194" to="5676708#6" type="truck_truck" />
    <trip depart="187.18" departLane="best" from="-5680035#0" id="truck196" to="-221586643#0" type="truck_truck" />
    <trip depart="189.09" departLane="best" from="5679109#1" id="truck198" to="-386201385" type="truck_truck" />
    <trip depart="190.05" departLane="best" from="275389083" id="truck199" to="46835368#1" type="truck_truck" />
    <trip depart="191.00" departLane="best" from="-5679171#6" id="truck200" to="511768217" type="truck_truck" />
    <trip depart="191.96" departLane="best" from="420319835#0" id="truck201" to="183916221#1" type="truck_truck" />
    <trip depart="194.82" departLane="best" from="-43242499#0" id="truck204" to="324751028" type="truck_truck" />
    <trip depart="195.78" departLane="best" from="-5677211" id="truck205" to="587067515" type="truck_truck" />
    <trip depart="196.73" departLane="best" from="420880629" id="truck206" to="-227074781#11" type="truck_truck" />
    <trip depart="198.64" departLane="best" from="349365815#2" id="truck208" to="5678101#14" type="truck_truck" />
    <trip depart="200.55" departLane="best" from="464551540#1" id="truck210" to="5710128#0" type="truck_truck" />
    <trip depart="202.46" departLane="best" from="530569001#4" id="truck212" to="420884510" type="truck_truck" />
    <trip depart="205.33" departLane="best" from="39946177-AddedOffRampEdge" id="truck215" to="221583273#4" type="truck_truck" />
    <trip depart="207.24" departLane="best" from="5676939#0" id="truck217" to="432554453#4" type="truck_truck" />
    <trip depart="208.19" departLane="best" from="46818904#9" id="truck218" to="221585918#7" type="truck_truck" />
    <trip depart="209.15" departLane="best" from="-351479503#1" id="truck219" to="221602117#1" type="truck_truck" />
    <trip depart="210.10" departLane="best" from="206610786#19" id="truck220" to="221777109#14" type="truck_truck" />
    <trip depart="211.06" departLane="best" from="43315004#0" id="truck221" to="-494221659#6" type="truck_truck" />
    <trip depart="212.01" departLane="best" from="-654744285#5" id="truck222" to="500269690#1" type="truck_truck" />
    <trip depart="213.92" departLane="best" from="25723095#0" id="truck224" to="451915591#2" type="truck_truck" />
    <trip depart="214.88" departLane="best" from="276024637#0" id="truck225" to="-672059010" type="truck_truck" />
    <trip depart="215.83" departLane="best" from="276024637#6" id="truck226" to="5680852" type="truck_truck" />
    <trip depart="216.79" departLane="best" from="46121853#2" id="truck227" to="506650490" type="truck_truck" />
    <trip depart="217.74" departLane="best" from="5679548#0" id="truck228" to="5677037#38" type="truck_truck" />
    <trip depart="218.70" departLane="best" from="227074776#3" id="truck229" to="-154513049#0" type="truck_truck" />
    <trip depart="219.65" departLane="best" from="5679240" id="truck230" to="571995830" type="truck_truck" />
    <trip depart="220.61" departLane="best" from="276024637#26" id="truck231" to="5676563" type="truck_truck" />
    <trip depart="221.56" departLane="best" from="447792828#1" id="truck232" to="46818460#1" type="truck_truck" />
    <trip depart="222.52" departLane="best" from="-587067527#1" id="truck233" to="110161764#0" type="truck_truck" />
    <trip depart="223.47" departLane="best" from="300338876#0" id="truck234" to="-221731898#0" type="truck_truck" />
    <trip depart="224.43" departLane="best" from="221759328#2" id="truck235" to="495491359#1" type="truck_truck" />
    <trip depart="225.38" departLane="best" from="250372840#6" id="truck236" to="-5678246#5" type="truck_truck" />
    <trip depart="226.34" departLane="best" from="37602216#0" id="truck237" to="-46818905#0" type="truck_truck" />
    <trip depart="227.29" departLane="best" from="46818471#0" id="truck238" to="-221696380#0" type="truck_truck" />
    <trip depart="228.25" departLane="best" from="23168577#0" id="truck239" to="46121848#1" type="truck_truck" />
    <trip depart="229.20" departLane="best" from="-221602121" id="truck240" to="46863844#10" type="truck_truck" />
    <trip depart="230.16" departLane="best" from="-46786509" id="truck241" to="40416338#1" type="truck_truck" />
    <trip depart="231.11" departLane="best" from="-227064556#2" id="truck242" to="23334061#4" type="truck_truck" />
    <trip depart="233.02" departLane="best" from="5676734#0" id="truck244" to="23334061#4" type="truck_truck" />
    <trip depart="233.98" departLane="best" from="5676417#1" id="truck245" to="5678756#8" type="truck_truck" />
    <trip depart="234.93" departLane="best" from="123001149#4" id="truck246" to="-420567578" type="truck_truck" />
    <trip depart="236.84" departLane="best" from="97010425#2" id="truck248" to="227064534#5" type="truck_truck" />
    <trip depart="238.75" departLane="best" from="46863691#4" id="truck250" to="5676884#1" type="truck_truck" />
    <trip depart="240.66" departLane="best" from="-221585916#1" id="truck252" to="-5675443" type="truck_truck" />
    <trip depart="242.57" departLane="best" from="452286946#1" id="truck254" to="108166470" type="truck_truck" />
    <trip depart="243.53" departLane="best" from="497258437#7" id="truck255" to="5677037#8" type="truck_truck" />
    <trip depart="244.48" departLane="best" from="-525679230#3" id="truck256" to="46818470#5" type="truck_truck" />
    <trip depart="245.44" departLane="best" from="5676234#7" id="truck257" to="-464137214#6" type="truck_truck" />
    <trip depart="247.35" departLane="best" from="-43242499#5" id="truck259" to="-221688252" type="truck_truck" />
    <trip depart="248.30" departLane="best" from="221688255#0" id="truck260" to="495491356#3" type="truck_truck" />
    <trip depart="249.26" departLane="best" from="587067518#1" id="truck261" to="275303277" type="truck_truck" />
    <trip depart="251.17" departLane="best" from="497193472#0" id="truck263" to="46835357#2-AddedOnRampEdge" type="truck_truck" />
    <trip depart="252.12" departLane="best" from="-420880043" id="truck264" to="5677211" type="truck_truck" />
    <trip depart="253.08" departLane="best" from="5679110" id="truck265" to="46817513#1" type="truck_truck" />
    <trip depart="254.03" departLane="best" from="-451915592" id="truck266" to="658936642#0" type="truck_truck" />
    <trip depart="255.94" departLane="best" from="276145117#1" id="truck268" to="227074808" type="truck_truck" />
    <trip depart="256.90" departLane="best" from="420571183" id="truck269" to="226998581#1" type="truck_truck" />
    <trip depart="258.81" departLane="best" from="-421149636#0" id="truck271" to="587067527#1" type="truck_truck" />
    <trip depart="259.76" departLane="best" from="46835336#6" id="truck272" to="5678641" type="truck_truck" />
    <trip depart="261.67" departLane="best" from="5675082#0" id="truck274" to="587355786" type="truck_truck" />
    <trip depart="263.58" departLane="best" from="432554453#2" id="truck276" to="420346480#1" type="truck_truck" />
    <trip depart="264.54" departLane="best" from="300338876#0" id="truck277" to="5675784#1" type="truck_truck" />
    <trip depart="266.45" departLane="best" from="5678442#1" id="truck279" to="-420584211" type="truck_truck" />
    <trip depart="267.40" departLane="best" from="5680117" id="truck280" to="183916221#1" type="truck_truck" />
    <trip depart="269.31" departLane="best" from="227074769#2" id="truck282" to="-221725602#1" type="truck_truck" />
    <trip depart="270.27" departLane="best" from="5679171#0" id="truck283" to="-5680476#6" type="truck_truck" />
    <trip depart="271.22" departLane="best" from="-5682143" id="truck284" to="5677949#8" type="truck_truck" />
    <trip depart="273.13" departLane="best" from="497259892#2" id="truck286" to="221586638#2" type="truck_truck" />
    <trip depart="276.00" departLane="best" from="420315111#0" id="truck289" to="5676994#3" type="truck_truck" />
    <trip depart="276.95" departLane="best" from="497193472#0" id="truck290" to="46863844#7" type="truck_truck" />
    <trip depart="277.91" departLane="best" from="420318579" id="truck291" to="5677945#1" type="truck_truck" />
    <trip depart="278.86" departLane="best" from="497253780#2" id="truck292" to="221759317#1" type="truck_truck" />
    <trip depart="279.82" departLane="best" from="46116280" id="truck293" to="420304917" type="truck_truck" />
    <trip depart="281.73" departLane="best" from="5676159#0" id="truck295" to="222246980#1" type="truck_truck" />
    <trip depart="282.68" departLane="best" from="497382070" id="truck296" to="221585916#3" type="truck_truck" />
    <trip depart="283.64" departLane="best" from="122660424#1" id="truck297" to="-46788750" type="truck_truck" />
    <trip depart="285.55" departLane="best" from="-5678262#15" id="truck299" to="107391104#3" type="truck_truck" />
    <trip depart="286.50" departLane="best" from="409285510#1" id="truck300" to="5675157#1" type="truck_truck" />
    <trip depart="287.46" departLane="best" from="641437652#2" id="truck301" to="440633382#1" type="truck_truck" />
    <trip depart="288.41" departLane="best" from="221583273#0" id="truck302" to="-432554453#9" type="truck_truck" />
    <trip depart="289.37" departLane="best" from="-5679171#5" id="truck303" to="123001149#2" type="truck_truck" />
    <trip depart="290.32" departLane="best" from="432552966#2" id="truck304" to="221585918#5" type="truck_truck" />
    <trip depart="292.23" departLane="best" from="497257926#2" id="truck306" to="-46818904#3" type="truck_truck" />
    <trip depart="293.19" departLane="best" from="5679854#7" id="truck307" to="420572564" type="truck_truck" />
    <trip depart="295.10" departLane="best" from="37977794#1" id="truck309" to="353256024" type="truck_truck" />
    <trip depart="296.05" departLane="best" from="-5678262#10" id="truck310" to="-227074781#18" type="truck_truck" />
    <trip depart="297.01" departLane="best" from="5682004#1" id="truck311" to="420319832#4" type="truck_truck" />
    <trip depart="297.96" departLane="best" from="-308340267#6" id="truck312" to="46835367#4" type="truck_truck" />
    <trip depart="298.92" departLane="best" from="-227074776#2" id="truck313" to="-5674502#0" type="truck_truck" />
    <trip depart="299.87" departLane="best" from="451915595" id="truck314" to="221753936#7" type="truck_truck" />
    <trip depart="300.83" departLane="best" from="68523765#1" id="truck315" to="-46772625#8" type="truck_truck" />
    <trip depart="301.78" departLane="best" from="5677438#24" id="truck316" to="122660423#1" type="truck_truck" />
    <trip depart="302.74" departLane="best" from="421084097" id="truck317" to="37575728#1" type="truck_truck" />
    <trip depart="304.65" departLane="best" from="680853691" id="truck319" to="221753948#2" type="truck_truck" />
    <trip depart="305.60" departLane="best" from="46818470#0" id="truck320" to="46818904#14" type="truck_truck" />
    <trip depart="307.51" departLane="best" from="-5680972#0" id="truck322" to="-68523775#0" type="truck_truck" />
    <trip depart="308.47" departLane="best" from="46865765#0" id="truck323" to="-5677011#1" type="truck_truck" />
    <trip depart="310.38" departLane="best" from="-111781747#8" id="truck325" to="37575728#1" type="truck_truck" />
    <trip depart="311.33" departLane="best" from="464137215" id="truck326" to="221694583#0" type="truck_truck" />
    <trip depart="312.29" departLane="best" from="-654744285#6" id="truck327" to="530568988#0" type="truck_truck" />
    <trip depart="314.20" departLane="best" from="495491357#0" id="truck329" to="5681383#10" type="truck_truck" />
    <trip depart="315.15" departLane="best" from="5677438#1" id="truck330" to="46835350#1-AddedOffRampEdge" type="truck_truck" />
    <trip depart="316.11" departLane="best" from="46865765#2" id="truck331" to="5681787#1" type="truck_truck" />
    <trip depart="317.06" departLane="best" from="276055771" id="truck332" to="451962063" type="truck_truck" />
    <trip depart="318.97" departLane="best" from="5678366#3" id="truck334" to="-37394899#4" type="truck_truck" />
    <trip depart="319.93" departLane="best" from="-524340771#0" id="truck335" to="221759318#5" type="truck_truck" />
    <trip depart="320.88" departLane="best" from="5676262#0" id="truck336" to="46121873#1" type="truck_truck" />
    <trip depart="322.79" departLane="best" from="496980629#0" id="truck338" to="515885162#7" type="truck_truck" />
    <trip depart="323.75" departLane="best" from="5682095#1" id="truck339" to="420880046#0" type="truck_truck" />
    <trip depart="324.70" departLane="best" from="420319834#0" id="truck340" to="-420346496" type="truck_truck" />
    <trip depart="325.66" departLane="best" from="-221777100#5" id="truck341" to="34593472#11" type="truck_truck" />
    <trip depart="326.61" departLane="best" from="221725601#0" id="truck342" to="219964428#12" type="truck_truck" />
    <trip depart="327.57" departLane="best" from="-420318561" id="truck343" to="587079728#1" type="truck_truck" />
    <trip depart="328.52" departLane="best" from="5678442#8" id="truck344" to="46189305" type="truck_truck" />