<routes xmlns:xsi="http://www.w3.org/2001/XMLSchema-instance" xsi:noNamespaceSchemaLocation="http://sumo.dlr.de/xsd/routes_file.xsd">
    <vType id="veh_passenger" vClass="passenger">
    </vType>
    <trip depart="0.43" departLane="best" from="123001156#0" id="veh1" to="122660451" type="veh_passenger" />
    <trip depart="0.87" departLane="best" from="5674356" id="veh2" to="495491358#2" type="veh_passenger" />
    <trip depart="2.17" departLane="best" from="-5680631#3" id="veh5" to="421116795#1" type="veh_passenger" />
    <trip depart="3.04" departLane="best" from="46835354" id="veh7" to="460576121" type="veh_passenger" />
    <trip depart="3.47" departLane="best" from="-5680736" id="veh8" to="46788758" type="veh_passenger" />
    <trip depart="3.91" departLane="best" from="5677949#19" id="veh9" to="-154513049#3" type="veh_passenger" />
    <trip depart="4.34" departLane="best" from="5677924" id="veh10" to="51980526#2" type="veh_passenger" />
    <trip depart="4.78" departLane="best" from="221696386#9" id="veh11" to="-5678101#7" type="veh_passenger" />
    <trip depart="5.21" departLane="best" from="578129950#1" id="veh12" to="222258277" type="veh_passenger" />
    <trip depart="6.08" departLane="best" from="5678784#10" id="veh14" to="46818904#15" type="veh_passenger" />
    <trip depart="6.51" departLane="best" from="5677932" id="veh15" to="5675915#1" type="veh_passenger" />
    <trip depart="6.95" departLane="best" from="421084098" id="veh16" to="626315789#0" type="veh_passenger" />
    <trip depart="7.38" departLane="best" from="222258273#0" id="veh17" to="460779250#16" type="veh_passenger" />
    <trip depart="7.81" departLane="best" from="5678277#4" id="veh18" to="46835349#1" type="veh_passenger" />
    <trip depart="8.25" departLane="best" from="5679567" id="veh19" to="46772625#6" type="veh_passenger" />
    <trip depart="9.12" departLane="best" from="-5681578" id="veh21" to="221607367" type="veh_passenger" />
    <trip depart="9.98" departLane="best" from="-420346447#2" id="veh23" to="221586639#2" type="veh_passenger" />
    <trip depart="10.42" departLane="best" from="46818905#4" id="veh24" to="227074794#1" type="veh_passenger" />
    <trip depart="11.29" departLane="best" from="111781747#0" id="veh26" to="5682095#3" type="veh_passenger" />
    <trip depart="11.72" departLane="best" from="46835349#1" id="veh27" to="46819926#0" type="veh_passenger" />
    <trip depart="13.02" departLane="best" from="680830802#1" id="veh30" to="46863774#2" type="veh_passenger" />
    <trip depart="13.46" departLane="best" from="442074815" id="veh31" to="497257603#12" type="veh_passenger" />
    <trip depart="14.33" departLane="best" from="-5681884" id="veh33" to="-221759317#1" type="veh_passenger" />
    <trip depart="14.76" departLane="best" from="221585914#7" id="veh34" to="221585914#23" type="veh_passenger" />
    <trip depart="15.19" departLane="best" from="-5679471" id="veh35" to="5705382#1" type="veh_passenger" />
    <trip depart="16.06" departLane="best" from="46838317#1" id="veh37" to="274894225" type="veh_passenger" />
    <trip depart="16.50" departLane="best" from="5680913#0" id="veh38" to="40174799" type="veh_passenger" />
    <trip depart="17.36" departLane="best" from="450610492#18" id="veh40" to="221585908#5" type="veh_passenger" />
    <trip depart="17.80" departLane="best" from="460584837#12" id="veh41" to="5680803#1" type="veh_passenger" />
    <trip depart="18.23" departLane="best" from="227074781#14" id="veh42" to="122625672#1" type="veh_passenger" />
    <trip depart="18.67" departLane="best" from="686370900" id="veh43" to="421755067#1" type="veh_passenger" />
    <trip depart="19.10" departLane="best" from="-39612790#0" id="veh44" to="-227074775#2" type="veh_passenger" />
    <trip depart="19.53" departLane="best" from="-420880051#1" id="veh45" to="46835370#3" type="veh_passenger" />
    <trip depart="20.40" departLane="best" from="-227074810" id="veh47" to="239626766" type="veh_passenger" />
    <trip depart="21.70" departLane="best" from="-185196951" id="veh50" to="5675082#0" type="veh_passenger" />
    <trip depart="22.14" departLane="best" from="479748558#1" id="veh51" to="451915593#1" type="veh_passenger" />
    <trip depart="22.57" departLane="best" from="110345443" id="veh52" to="46863840#0" type="veh_passenger" />
    <trip depart="23.44" departLane="best" from="308338866" id="veh54" to="573632388" type="veh_passenger" />
    <trip depart="23.88" departLane="best" from="5679892#7" id="veh55" to="221585908#5" type="veh_passenger" />
    <trip depart="24.31" departLane="best" from="41381890#1" id="veh56" to="-5680477" type="veh_passenger" />
    <trip depart="24.74" departLane="best" from="5680853#0" id="veh57" to="5680120#2" type="veh_passenger" />
    <trip depart="25.18" departLane="best" from="219964442#0" id="veh58" to="46863774#0" type="veh_passenger" />
    <trip depart="25.61" departLane="best" from="46774534#1" id="veh59" to="-5677749" type="veh_passenger" />
    <trip depart="26.05" departLane="best" from="5676656#0" id="veh60" to="455014440#1" type="veh_passenger" />
    <trip depart="26.91" departLane="best" from="-108166470" id="veh62" to="222246538#3" type="veh_passenger" />
    <trip depart="27.35" departLane="best" from="-221585908#0" id="veh63" to="5681691#2" type="veh_passenger" />
    <trip depart="27.78" departLane="best" from="5679918" id="veh64" to="5678784#21" type="veh_passenger" />
    <trip depart="29.08" departLane="best" from="-360608776" id="veh67" to="420567572" type="veh_passenger" />
    <trip depart="29.52" departLane="best" from="-23334074#1" id="veh68" to="5677037#25" type="veh_passenger" />
    <trip depart="29.95" departLane="best" from="5676708#3" id="veh69" to="-494221659#2" type="veh_passenger" />
    <trip depart="31.69" departLane="best" from="421118179" id="veh73" to="5675915#4" type="veh_passenger" />
    <trip depart="32.12" departLane="best" from="-5678384#2" id="veh74" to="221759326" type="veh_passenger" />
    <trip depart="32.99" departLane="best" from="276043628#3" id="veh76" to="43314997#1" type="veh_passenger" />
    <trip depart="33.43" departLane="best" from="-432554453#9" id="veh77" to="123001149#6" type="veh_passenger" />
    <trip depart="33.86" departLane="best" from="221696386#10" id="veh78" to="46788750" type="veh_passenger" />
    <trip depart="34.29" departLane="best" from="-5682164#2" id="veh79" to="122625672#1" type="veh_passenger" />
    <trip depart="35.16" departLane="best" from="-5681578" id="veh81" to="5680955#0" type="veh_passenger" />
    <trip depart="35.60" departLane="best" from="5679437#1" id="veh82" to="-40785409#0" type="veh_passenger" />
    <trip depart="36.03" departLane="best" from="-573838648" id="veh83" to="489437292#0" type="veh_passenger" />
    <trip depart="36.46" departLane="best" from="-5679829" id="veh84" to="-497257603#0" type="veh_passenger" />
    <trip depart="36.90" departLane="best" from="5681691#0" id="veh85" to="463957168" type="veh_passenger" />
    <trip depart="37.33" departLane="best" from="349369490" id="veh86" to="5677585#1" type="veh_passenger" />
    <trip depart="37.77" departLane="best" from="5677945#0" id="veh87" to="-574211884" type="veh_passenger" />
    <trip depart="38.20" departLane="best" from="-409285510#4" id="veh88" to="34593472#12" type="veh_passenger" />
    <trip depart="38.63" departLane="best" from="25723095#1" id="veh89" to="40785412" type="veh_passenger" />
    <trip depart="39.07" departLane="best" from="542169856#12" id="veh90" to="494221659#8" type="veh_passenger" />
    <trip depart="39.50" departLane="best" from="658936642#1" id="veh91" to="-455201237#1" type="veh_passenger" />
    <trip depart="40.37" departLane="best" from="5679567" id="veh93" to="206610786#4" type="veh_passenger" />
    <trip depart="40.81" departLane="best" from="-5678101#0" id="veh94" to="37523639" type="veh_passenger" />
    <trip depart="41.67" departLane="best" from="-636728274#7" id="veh96" to="5681491#1" type="veh_passenger" />
    <trip depart="42.98" departLane="best" from="97010378#0" id="veh99" to="5678929#3" type="veh_passenger" />
    <trip depart="43.84" departLane="best" from="5678784#18" id="veh101" to="-5678919#1" type="veh_passenger" />
    <trip depart="44.28" departLane="best" from="38341528#4" id="veh102" to="108166470" type="veh_passenger" />
    <trip depart="45.15" departLane="best" from="222258273#3" id="veh104" to="658936644#0" type="veh_passenger" />
    <trip depart="45.58" departLane="best" from="110155730#2" id="veh105" to="5677511" type="veh_passenger" />
    <trip depart="46.01" departLane="best" from="308340267#7" id="veh106" to="315569174" type="veh_passenger" />
    <trip depart="46.45" departLane="best" from="578129950#2" id="veh107" to="68523765#2" type="veh_passenger" />
    <trip depart="47.32" departLane="best" from="-46835364" id="veh109" to="221696386#9" type="veh_passenger" />
    <trip depart="48.18" departLane="best" from="421752007" id="veh111" to="5676705" type="veh_passenger" />
    <trip depart="48.62" departLane="best" from="-227074781#1" id="veh112" to="46788735" type="veh_passenger" />
    <trip depart="49.05" departLane="best" from="420304949" id="veh113" to="5679758#3" type="veh_passenger" />
    <trip depart="49.49" departLane="best" from="-46863774#2" id="veh114" to="587067526#1" type="veh_passenger" />
    <trip depart="49.92" departLane="best" from="-315569176#0" id="veh115" to="-5681577#3" type="veh_passenger" />
    <trip depart="50.36" departLane="best" from="46121854" id="veh116" to="495491356#1" type="veh_passenger" />
    <trip depart="50.79" departLane="best" from="-573626193" id="veh117" to="-46863691#3" type="veh_passenger" />
    <trip depart="51.22" departLane="best" from="5680167#4" id="veh118" to="204842637#0" type="veh_passenger" />
    <trip depart="51.66" departLane="best" from="46121853#1" id="veh119" to="46835349#6" type="veh_passenger" />
    <trip depart="52.09" departLane="best" from="249968535#2" id="veh120" to="46786522" type="veh_passenger" />
    <trip depart="52.53" departLane="best" from="420572567" id="veh121" to="5682056#1" type="veh_passenger" />
    <trip depart="52.96" departLane="best" from="-5678889#1" id="veh122" to="552015559#1" type="veh_passenger" />
    <trip depart="53.39" departLane="best" from="-573838648" id="veh123" to="27524495" type="veh_passenger" />
    <trip depart="53.83" departLane="best" from="46865765#4" id="veh124" to="221731898#0" type="veh_passenger" />
    <trip depart="54.26" departLane="best" from="221585916#10" id="veh125" to="5676884#1" type="veh_passenger" />
    <trip depart="54.70" departLane="best" from="-239626767#0" id="veh126" to="40174799" type="veh_passenger" />
    <trip depart="55.13" departLane="best" from="78288188#2" id="veh127" to="68523765#6" type="veh_passenger" />
    <trip depart="55.56" departLane="best" from="-239626769#2" id="veh128" to="108166470" type="veh_passenger" />
    <trip depart="56.00" departLane="best" from="110155730#2" id="veh129" to="5681969#1" type="veh_passenger" />
    <trip depart="56.43" departLane="best" from="5680024#12" id="veh130" to="5680419#0" type="veh_passenger" />
    <trip depart="56.87" departLane="best" from="222246539#1" id="veh131" to="-5678246#0" type="veh_passenger" />
    <trip depart="57.30" departLane="best" from="5678384#1" id="veh132" to="530568988#1" type="veh_passenger" />
    <trip depart="57.73" departLane="best" from="46786494" id="veh133" to="660084150#2" type="veh_passenger" />
    <trip depart="58.17" departLane="best" from="46835402#0" id="veh134" to="-154513052" type="veh_passenger" />
    <trip depart="59.47" departLane="best" from="-46121848#5" id="veh137" to="-46818904#12" type="veh_passenger" />
    <trip depart="60.34" departLane="best" from="122660424#0" id="veh139" to="46818904#4" type="veh_passenger" />
    <trip depart="60.77" departLane="best" from="524340771#3" id="veh140" to="-682886111#1" type="veh_passenger" />
    <trip depart="61.64" departLane="best" from="5678756#7" id="veh142" to="-432554453#12" type="veh_passenger" />
    <trip depart="62.08" departLane="best" from="25723095#1" id="veh143" to="221586639#1" type="veh_passenger" />
    <trip depart="62.51" departLane="best" from="-139919720#1" id="veh144" to="5677211" type="veh_passenger" />
    <trip depart="62.94" departLane="best" from="46819899" id="veh145" to="221585908#3" type="veh_passenger" />
    <trip depart="63.38" departLane="best" from="5675267#0" id="veh146" to="460779250#16" type="veh_passenger" />
    <trip depart="63.81" departLane="best" from="275303277" id="veh147" to="-154513056" type="veh_passenger" />
    <trip depart="65.11" departLane="best" from="5678387#0" id="veh150" to="46786511" type="veh_passenger" />
    <trip depart="65.55" departLane="best" from="221585906#5" id="veh151" to="5680807#1" type="veh_passenger" />
    <trip depart="65.98" departLane="best" from="5677438#1" id="veh152" to="5679887#2" type="veh_passenger" />
    <trip depart="66.42" departLane="best" from="5680476#6" id="veh153" to="107391104#17" type="veh_passenger" />
    <trip depart="68.59" departLane="best" from="5679708#3" id="veh158" to="639118784#1" type="veh_passenger" />
    <trip depart="69.02" departLane="best" from="5677949#26" id="veh159" to="5680442#2" type="veh_passenger" />
    <trip depart="69.46" departLane="best" from="-221585918#12" id="veh160" to="5676262#7" type="veh_passenger" />
    <trip depart="69.89" departLane="best" from="221607366#0" id="veh161" to="5681884" type="veh_passenger" />
    <trip depart="70.76" departLane="best" from="5677949#26" id="veh163" to="221585914#18" type="veh_passenger" />
    <trip depart="71.19" departLane="best" from="5677047" id="veh164" to="-46772622#0" type="veh_passenger" />
    <trip depart="72.06" departLane="best" from="334341973#1" id="veh166" to="221759317#2" type="veh_passenger" />
    <trip depart="72.49" departLane="best" from="5677430#7" id="veh167" to="127739270#2" type="veh_passenger" />
    <trip depart="72.93" departLane="best" from="-221585916#7" id="veh168" to="-587355768" type="veh_passenger" />
    <trip depart="74.66" departLane="best" from="654744279" id="veh172" to="451915591#2" type="veh_passenger" />
    <trip depart="75.10" departLane="best" from="5681940#0" id="veh173" to="-46818904#12" type="veh_passenger" />
    <trip depart="75.97" departLane="best" from="587355778#1" id="veh175" to="221585914#10" type="veh_passenger" />
    <trip depart="76.40" departLane="best" from="-420875713#1" id="veh176" to="347014806#1" type="veh_passenger" />
    <trip depart="77.27" departLane="best" from="46772621" id="veh178" to="43242499#6" type="veh_passenger" />
    <trip depart="77.70" departLane="best" from="227064522#2" id="veh179" to="46772625#1" type="veh_passenger" />
    <trip depart="78.14" departLane="best" from="-658936644#16" id="veh180" to="535252372#3" type="veh_passenger" />
    <trip depart="78.57" departLane="best" from="-111781747#1" id="veh181" to="5681577#0" type="veh_passenger" />
    <trip depart="79.01" departLane="best" from="421116795#1" id="veh182" to="5674509" type="veh_passenger" />
    <trip depart="79.44" departLane="best" from="5675271#4" id="veh183" to="489437292#7" type="veh_passenger" />
    <trip depart="79.87" departLane="best" from="221777109#6" id="veh184" to="-40416342#0" type="veh_passenger" />
    <trip depart="80.31" departLane="best" from="46863844#10" id="veh185" to="222247847#0" type="veh_passenger" />
    <trip depart="80.74" departLane="best" from="221585914#23" id="veh186" to="5679708#11" type="veh_passenger" />
    <trip depart="81.18" departLane="best" from="524345883" id="veh187" to="221753933" type="veh_passenger" />
    <trip depart="81.61" departLane="best" from="221585908#1" id="veh188" to="276050436" type="veh_passenger" />
    <trip depart="82.04" departLane="best" from="227074786#5" id="veh189" to="221696386#2" type="veh_passenger" />
    <trip depart="82.91" departLane="best" from="5682004#1" id="veh191" to="495491358#2" type="veh_passenger" />
    <trip depart="83.35" departLane="best" from="5680631#3" id="veh192" to="46835336#8" type="veh_passenger" />
    <trip depart="83.78" departLane="best" from="221446578#3" id="veh193" to="460584837#8" type="veh_passenger" />
    <trip depart="84.21" departLane="best" from="-108166470" id="veh194" to="221605483#0" type="veh_passenger" />
    <trip depart="84.65" departLane="best" from="275355374" id="veh195" to="46786487" type="veh_passenger" />
    <trip depart="85.52" departLane="best" from="276080905" id="veh197" to="108166470" type="veh_passenger" />
    <trip depart="85.95" departLane="best" from="350687715#1" id="veh198" to="5680852" type="veh_passenger" />
    <trip depart="86.82" departLane="best" from="-360608776" id="veh200" to="432554453#1" type="veh_passenger" />
    <trip depart="87.25" departLane="best" from="46818904#14" id="veh201" to="222258273#2" type="veh_passenger" />
    <trip depart="87.69" departLane="best" from="5678147#3" id="veh202" to="5676852#3" type="veh_passenger" />
    <trip depart="88.12" departLane="best" from="46865766" id="veh203" to="123001149#5" type="veh_passenger" />
    <trip depart="88.56" departLane="best" from="-5678262#6" id="veh204" to="-221586637" type="veh_passenger" />
    <trip depart="88.99" departLane="best" from="-59707790" id="veh205" to="420317173" type="veh_passenger" />
    <trip depart="89.42" departLane="best" from="5678784#23" id="veh206" to="-420317203" type="veh_passenger" />
    <trip depart="89.86" departLane="best" from="23334073" id="veh207" to="46838315" type="veh_passenger" />
    <trip depart="90.73" departLane="best" from="40416344#0" id="veh209" to="183916221#5" type="veh_passenger" />
    <trip depart="91.59" departLane="best" from="5675963#3" id="veh211" to="5677205#2" type="veh_passenger" />
    <trip depart="92.46" departLane="best" from="-506650490" id="veh213" to="587067515" type="veh_passenger" />
    <trip depart="92.90" departLane="best" from="420346499" id="veh214" to="-227074781#4" type="veh_passenger" />
    <trip depart="93.33" departLane="best" from="-636728274#7" id="veh215" to="5679708#13" type="veh_passenger" />
    <trip depart="93.76" departLane="best" from="311764602" id="veh216" to="5678115#3" type="veh_passenger" />
    <trip depart="94.63" departLane="best" from="46121859" id="veh218" to="5710416#5" type="veh_passenger" />
    <trip depart="95.50" departLane="best" from="524340776#7" id="veh220" to="421116792" type="veh_passenger" />
    <trip depart="95.94" departLane="best" from="5678278" id="veh221" to="460584837#7" type="veh_passenger" />
    <trip depart="96.37" departLane="best" from="5680442#6" id="veh222" to="5676489#9" type="veh_passenger" />
    <trip depart="96.80" departLane="best" from="354926644#1" id="veh223" to="221583273#4" type="veh_passenger" />
    <trip depart="97.67" departLane="best" from="5676708#3" id="veh225" to="440633442" type="veh_passenger" />
    <trip depart="98.54" departLane="best" from="-276202770" id="veh227" to="221602120" type="veh_passenger" />
    <trip depart="98.97" departLane="best" from="122625703-AddedOffRampEdge" id="veh228" to="221777109#20" type="veh_passenger" />
    <trip depart="99.41" departLane="best" from="421120405" id="veh229" to="-526209963#1" type="veh_passenger" />
    <trip depart="99.84" departLane="best" from="-569164780" id="veh230" to="511768217" type="veh_passenger" />
    <trip depart="100.28" departLane="best" from="497258460#0" id="veh231" to="-350687715#0" type="veh_passenger" />
    <trip depart="101.14" departLane="best" from="239625023" id="veh233" to="-686370900" type="veh_passenger" />
    <trip depart="101.58" departLane="best" from="250372840#4" id="veh234" to="5680913#1" type="veh_passenger" />
    <trip depart="102.01" departLane="best" from="460584836#1" id="veh235" to="515885152#3" type="veh_passenger" />
    <trip depart="102.88" departLane="best" from="222258278" id="veh237" to="-154513049#0" type="veh_passenger" />
    <trip depart="103.75" departLane="best" from="5678929#0" id="veh239" to="573632388" type="veh_passenger" />
    <trip depart="104.62" departLane="best" from="43242499#7" id="veh241" to="46818904#12" type="veh_passenger" />
    <trip depart="105.05" departLane="best" from="-5680736" id="veh242" to="122625672#1" type="veh_passenger" />
    <trip depart="105.49" departLane="best" from="276024637#25" id="veh243" to="-221731898#1" type="veh_passenger" />
    <trip depart="105.92" departLane="best" from="221696377#6" id="veh244" to="496995105#0" type="veh_passenger" />
    <trip depart="106.35" departLane="best" from="227074794#0" id="veh245" to="-5678419" type="veh_passenger" />
    <trip depart="106.79" departLane="best" from="34593472#4" id="veh246" to="-483140982#0" type="veh_passenger" />
    <trip depart="107.66" departLane="best" from="227064556#3" id="veh248" to="46137555#0" type="veh_passenger" />
    <trip depart="108.09" departLane="best" from="-221586639#2" id="veh249" to="46863844#18" type="veh_passenger" />
    <trip depart="108.96" departLane="best" from="-226998579" id="veh251" to="23334073" type="veh_passenger" />
    <trip depart="109.83" departLane="best" from="5676531#1" id="veh253" to="23334073" type="veh_passenger" />
    <trip depart="110.26" departLane="best" from="5675963#9" id="veh254" to="5678784#23" type="veh_passenger" />
    <trip depart="111.13" departLane="best" from="-221585908#0" id="veh256" to="455014440#1" type="veh_passenger" />
    <trip depart="111.56" departLane="best" from="97010425#2" id="veh257" to="227064551#0" type="veh_passenger" />
    <trip depart="112.00" departLane="best" from="46835357#0" id="veh258" to="5677438#25" type="veh_passenger" />
    <trip depart="112.43" departLane="best" from="46835367#3" id="veh259" to="5676994#1" type="veh_passenger" />
    <trip depart="112.86" departLane="best" from="5705382#0" id="veh260" to="-654744274#1" type="veh_passenger" />
    <trip depart="113.30" departLane="best" from="-221585908#5" id="veh261" to="-5677695#1" type="veh_passenger" />
    <trip depart="113.73" departLane="best" from="-451413253#3" id="veh262" to="489437292#11" type="veh_passenger" />
    <trip depart="114.17" departLane="best" from="451380982#3" id="veh263" to="111781747#5" type="veh_passenger" />
    <trip depart="114.60" departLane="best" from="497253780#2" id="veh264" to="5677112#6" type="veh_passenger" />
    <trip depart="115.47" departLane="best" from="5675784#1" id="veh266" to="-46818902#1" type="veh_passenger" />
    <trip depart="115.90" departLane="best" from="5678182#1" id="veh267" to="587355763" type="veh_passenger" />
    <trip depart="116.34" departLane="best" from="-420875711" id="veh268" to="-221604537#1" type="veh_passenger" />
    <trip depart="116.77" departLane="best" from="221585914#11" id="veh269" to="495491358#2" type="veh_passenger" />
    <trip depart="117.21" departLane="best" from="587067519" id="veh270" to="275303244" type="veh_passenger" />
    <trip depart="117.64" departLane="best" from="515885162#4" id="veh271" to="-420567574" type="veh_passenger" />
    <trip depart="118.07" departLane="best" from="489437292#11" id="veh272" to="46835370#2" type="veh_passenger" />
    <trip depart="118.51" departLane="best" from="-420346497" id="veh273" to="5677338" type="veh_passenger" />
    <trip depart="118.94" departLane="best" from="5678784#27" id="veh274" to="46818468#9" type="veh_passenger" />
    <trip depart="119.38" departLane="best" from="-432554453#9" id="veh275" to="658936639#0" type="veh_passenger" />
    <trip depart="119.81" departLane="best" from="5677037#19" id="veh276" to="227064534#6" type="veh_passenger" />
    <trip depart="120.24" departLane="best" from="275303293#0" id="veh277" to="23168562" type="veh_passenger" />
    <trip depart="120.68" departLane="best" from="420318567" id="veh278" to="227064513#0" type="veh_passenger" />
    <trip depart="121.11" departLane="best" from="5678784#22" id="veh279" to="5678442#3" type="veh_passenger" />
    <trip depart="121.55" departLane="best" from="-420583304#0" id="veh280" to="587067526#1" type="veh_passenger" />
    <trip depart="121.98" departLane="best" from="46818905#3" id="veh281" to="5678756#9" type="veh_passenger" />
    <trip depart="122.42" departLane="best" from="497258460#0" id="veh282" to="347309380#2" type="veh_passenger" />
    <trip depart="123.28" departLane="best" from="122625696" id="veh284" to="5678246#9" type="veh_passenger" />
    <trip depart="123.72" departLane="best" from="421116794" id="veh285" to="420346484#1" type="veh_passenger" />
    <trip depart="124.15" departLane="best" from="276024637#23" id="veh286" to="5675937" type="veh_passenger" />
    <trip depart="125.02" departLane="best" from="5678278" id="veh288" to="-43242499#0" type="veh_passenger" />
    <trip depart="125.45" departLane="best" from="5680024#2" id="veh289" to="183916221#4" type="veh_passenger" />
    <trip depart="125.89" departLane="best" from="343990838#0" id="veh290" to="46820403#3" type="veh_passenger" />
    <trip depart="126.32" departLane="best" from="222258273#3" id="veh291" to="-221725602#3" type="veh_passenger" />
    <trip depart="126.76" departLane="best" from="5678784#6" id="veh292" to="-5680931" type="veh_passenger" />
    <trip depart="127.19" departLane="best" from="-5679720" id="veh293" to="5678025" type="veh_passenger" />
    <trip depart="127.62" departLane="best" from="221696387" id="veh294" to="5680429#1" type="veh_passenger" />
    <trip depart="128.06" departLane="best" from="497256111" id="veh295" to="221586638#8" type="veh_passenger" />
    <trip depart="128.49" departLane="best" from="-183916203#1" id="veh296" to="5710128#6" type="veh_passenger" />
    <trip depart="129.36" departLane="best" from="489437292#11" id="veh298" to="46863850" type="veh_passenger" />
    <trip depart="129.79" departLane="best" from="39956193#2" id="veh299" to="5677949#15" type="veh_passenger" />
    <trip depart="130.66" departLane="best" from="489437292#7" id="veh301" to="221759318#4" type="veh_passenger" />
    <trip depart="131.10" departLane="best" from="460569807#1" id="veh302" to="420304917" type="veh_passenger" />
    <trip depart="131.53" departLane="best" from="420880045" id="veh303" to="334262992#1" type="veh_passenger" />
    <trip depart="132.40" departLane="best" from="-654744274#4" id="veh305" to="-46863798" type="veh_passenger" />
    <trip depart="132.83" departLane="best" from="-5678101#8" id="veh306" to="-46863691#0" type="veh_passenger" />
    <trip depart="133.27" departLane="best" from="420886411" id="veh307" to="5677037#36" type="veh_passenger" />
    <trip depart="134.14" departLane="best" from="37977968" id="veh309" to="5675573#10" type="veh_passenger" />
    <trip depart="134.57" departLane="best" from="639763612" id="veh310" to="450610492#13" type="veh_passenger" />
    <trip depart="135.00" departLane="best" from="151472137" id="veh311" to="-460569807#0" type="veh_passenger" />
    <trip depart="135.87" departLane="best" from="-5674502#1" id="veh313" to="-206610786#7" type="veh_passenger" />
    <trip depart="136.31" departLane="best" from="420883010" id="veh314" to="221586637" type="veh_passenger" />
    <trip depart="137.61" departLane="best" from="5679879" id="veh317" to="464255706#1" type="veh_passenger" />
    <trip depart="138.48" departLane="best" from="-5676914" id="veh319" to="-227074786#14" type="veh_passenger" />
    <trip depart="138.91" departLane="best" from="5682051" id="veh320" to="420319832#4" type="veh_passenger" />
    <trip depart="139.34" departLane="best" from="5678215#9" id="veh321" to="275389181" type="veh_passenger" />
    <trip depart="139.78" departLane="best" from="-243503933" id="veh322" to="46838315" type="veh_passenger" />
    <trip depart="140.21" departLane="best" from="-227064558" id="veh323" to="-5676937" type="veh_passenger" />
    <trip depart="140.65" departLane="best" from="450610492#27" id="veh324" to="221753948#0" type="veh_passenger" />
    <trip depart="141.08" departLane="best" from="68523765#2" id="veh325" to="-46818905#4" type="veh_passenger" />
    <trip depart="141.52" departLane="best" from="5676690#3" id="veh326" to="46818905#4" type="veh_passenger" />
    <trip depart="141.95" departLane="best" from="5677167#1" id="veh327" to="123001151#3" type="veh_passenger" />
    <trip depart="142.38" departLane="best" from="420571192" id="veh328" to="37793000#2" type="veh_passenger" />
    <trip depart="142.82" departLane="best" from="276083330#2" id="veh329" to="5679875#0" type="veh_passenger" />
    <trip depart="143.25" departLane="best" from="680852336" id="veh330" to="221759317#3" type="veh_passenger" />
    <trip depart="143.69" departLane="best" from="46817493#3" id="veh331" to="46820145" type="veh_passenger" />
    <trip depart="144.12" departLane="best" from="5674971#0" id="veh332" to="5710128#5" type="veh_passenger" />
    <trip depart="144.55" departLane="best" from="-5679171#4" id="veh333" to="107391104#23" type="veh_passenger" />
    <trip depart="144.99" departLane="best" from="46863648#1" id="veh334" to="-5678246#0" type="veh_passenger" />
    <trip depart="145.86" departLane="best" from="-111781747#5" id="veh336" to="37793000#2" type="veh_passenger" />
    <trip depart="147.16" departLane="best" from="497257603#12" id="veh339" to="38341528#3" type="veh_passenger" />
    <trip depart="147.59" departLane="best" from="483704094#7" id="veh340" to="5681544#0" type="veh_passenger" />
    <trip depart="148.03" departLane="best" from="5677047" id="veh341" to="46835367#3" type="veh_passenger" />
    <trip depart="148.46" departLane="best" from="46863673#1" id="veh342" to="5682006" type="veh_passenger" />
    <trip depart="148.89" departLane="best" from="262798842#0" id="veh343" to="460576113" type="veh_passenger" />
    <trip depart="149.33" departLane="best" from="46835347" id="veh344" to="5680992#13" type="veh_passenger" />