<routes xmlns:xsi="http://www.w3.org/2001/XMLSchema-instance" xsi:noNamespaceSchemaLocation="http://sumo.dlr.de/xsd/routes_file.xsd">
    <vType id="veh_passenger" vClass="passenger">
    </vType>
    <trip depart="1.08" departLane="best" from="184765909#3" id="veh4" to="-183853709" type="veh_passenger" />
    <trip depart="1.35" departLane="best" from="-430127812" id="veh5" to="27639631#1" type="veh_passenger" />
    <trip depart="2.43" departLane="best" from="426696438" id="veh9" to="-128511300" type="veh_passenger" />
    <trip depart="2.97" departLane="best" from="128508553" id="veh11" to="-39117758#0" type="veh_passenger" />
    <trip depart="4.05" departLane="best" from="426696421#2" id="veh15" to="425850168" type="veh_passenger" />
    <trip depart="4.32" departLane="best" from="251629012" id="veh16" to="71958447#3" type="veh_passenger" />
    <trip depart="4.59" departLane="best" from="15069448" id="veh17" to="330594194" type="veh_passenger" />
    <trip depart="4.86" departLane="best" from="427400766#1" id="veh18" to="38630328#0" type="veh_passenger" />
    <trip depart="5.67" departLane="best" from="-430128169" id="veh21" to="134363382" type="veh_passenger" />
    <trip depart="6.21" departLane="best" from="-34439046#5" id="veh23" to="130808658#2" type="veh_passenger" />
    <trip depart="7.02" departLane="best" from="-450505896" id="veh26" to="56394188" type="veh_passenger" />
    <trip depart="7.56" departLane="best" from="-424416256" id="veh28" to="425846511#0" type="veh_passenger" />
    <trip depart="8.91" departLane="best" from="-430128406" id="veh33" to="-188303695#1" type="veh_passenger" />
    <trip depart="10.27" departLane="best" from="517412540" id="veh38" to="251628568#2" type="veh_passenger" />
    <trip depart="10.81" departLane="best" from="27030143#0" id="veh40" to="124962721#0" type="veh_passenger" />
    <trip depart="13.51" departLane="best" from="-151882388#1" id="veh50" to="424630827#1" type="veh_passenger" />
    <trip depart="15.13" departLane="best" from="237048465#1" id="veh56" to="-427348529" type="veh_passenger" />
    <trip depart="16.21" departLane="best" from="424217262#2" id="veh60" to="301151224" type="veh_passenger" />
    <trip depart="16.75" departLane="best" from="-124962747#2" id="veh62" to="172297075#5" type="veh_passenger" />
    <trip depart="17.83" departLane="best" from="454570242" id="veh66" to="587922690#1" type="veh_passenger" />
    <trip depart="18.37" departLane="best" from="-27030148#1" id="veh68" to="426927761#3" type="veh_passenger" />
    <trip depart="18.64" departLane="best" from="424396207#3" id="veh69" to="-39014081#1" type="veh_passenger" />
    <trip depart="18.91" departLane="best" from="231281381#2" id="veh70" to="329094557#3" type="veh_passenger" />
    <trip depart="20.26" departLane="best" from="8579414#0" id="veh75" to="39049638#0" type="veh_passenger" />
    <trip depart="20.53" departLane="best" from="19797649#1" id="veh76" to="27667560" type="veh_passenger" />
    <trip depart="21.61" departLane="best" from="-27586531" id="veh80" to="38740544" type="veh_passenger" />
    <trip depart="22.15" departLane="best" from="436647799" id="veh82" to="-27030009" type="veh_passenger" />
    <trip depart="22.42" departLane="best" from="-430129640" id="veh83" to="39080244#3" type="veh_passenger" />
    <trip depart="23.50" departLane="best" from="426696424" id="veh87" to="-430119210" type="veh_passenger" />
    <trip depart="25.93" departLane="best" from="-436333197#1" id="veh96" to="519490875" type="veh_passenger" />
    <trip depart="27.28" departLane="best" from="430128047#0" id="veh101" to="-425934225" type="veh_passenger" />
    <trip depart="28.36" departLane="best" from="-448209066" id="veh105" to="430115790" type="veh_passenger" />
    <trip depart="29.72" departLane="best" from="679367236" id="veh110" to="369907203#5" type="veh_passenger" />
    <trip depart="37.28" departLane="best" from="-37538137#0" id="veh138" to="330594204" type="veh_passenger" />
    <trip depart="38.36" departLane="best" from="231404788#2" id="veh142" to="493709855#1" type="veh_passenger" />
    <trip depart="39.71" departLane="best" from="39120544#0" id="veh147" to="330594187#1" type="veh_passenger" />
    <trip depart="39.98" departLane="best" from="186496569#0" id="veh148" to="-131628119#1" type="veh_passenger" />
    <trip depart="40.79" departLane="best" from="430118176#0" id="veh151" to="370514752#0" type="veh_passenger" />
    <trip depart="41.33" departLane="best" from="-565161446#0" id="veh153" to="490216495#1" type="veh_passenger" />
    <trip depart="41.60" departLane="best" from="426505743#1" id="veh154" to="448210021#0" type="veh_passenger" />
    <trip depart="42.41" departLane="best" from="425850165#1" id="veh157" to="469589498" type="veh_passenger" />
    <trip depart="43.49" departLane="best" from="426927713#1" id="veh161" to="46892969#2" type="veh_passenger" />
    <trip depart="45.38" departLane="best" from="-430127946" id="veh168" to="430128408" type="veh_passenger" />
    <trip depart="46.46" departLane="best" from="-8579169#3" id="veh172" to="450678401" type="veh_passenger" />
    <trip depart="46.73" departLane="best" from="679174598#0" id="veh173" to="131628104#0" type="veh_passenger" />
    <trip depart="47.54" departLane="best" from="587922690#0" id="veh176" to="-37916524#2" type="veh_passenger" />
    <trip depart="47.81" departLane="best" from="71958447#4" id="veh177" to="-427348456" type="veh_passenger" />
    <trip depart="48.08" departLane="best" from="672784702#0" id="veh178" to="124962784" type="veh_passenger" />
    <trip depart="48.63" departLane="best" from="39081435" id="veh180" to="16765274#3" type="veh_passenger" />
    <trip depart="48.90" departLane="best" from="28807488#2" id="veh181" to="27644485#1" type="veh_passenger" />
    <trip depart="49.17" departLane="best" from="16238438#2" id="veh182" to="369907196#5" type="veh_passenger" />
    <trip depart="49.44" departLane="best" from="-436647799" id="veh183" to="424212160" type="veh_passenger" />
    <trip depart="49.71" departLane="best" from="-128508551#1" id="veh184" to="524259147#1" type="veh_passenger" />
    <trip depart="50.52" departLane="best" from="133333367#0" id="veh187" to="-27029999#0" type="veh_passenger" />
    <trip depart="52.68" departLane="best" from="488673698" id="veh195" to="38583815#0" type="veh_passenger" />
    <trip depart="53.76" departLane="best" from="373580563" id="veh199" to="255845156#3" type="veh_passenger" />
    <trip depart="55.92" departLane="best" from="430128415#0" id="veh207" to="-27030031#4" type="veh_passenger" />
    <trip depart="56.19" departLane="best" from="183489045#10-AddedOffRampEdge" id="veh208" to="38738784" type="veh_passenger" />
    <trip depart="56.73" departLane="best" from="234501228" id="veh210" to="-635718958#0" type="veh_passenger" />
    <trip depart="57.00" departLane="best" from="37538109#1" id="veh211" to="-128508558#1" type="veh_passenger" />
    <trip depart="60.78" departLane="best" from="-436325257" id="veh225" to="39046000" type="veh_passenger" />
    <trip depart="61.05" departLane="best" from="424396207#2" id="veh226" to="27668372#0" type="veh_passenger" />
    <trip depart="61.59" departLane="best" from="-27639638" id="veh228" to="133124798#0" type="veh_passenger" />
    <trip depart="61.86" departLane="best" from="-462656809" id="veh229" to="171847941#0-AddedOffRampEdge" type="veh_passenger" />
    <trip depart="62.40" departLane="best" from="-430128409" id="veh231" to="416453603" type="veh_passenger" />
    <trip depart="62.67" departLane="best" from="39048479" id="veh232" to="-251629009#1" type="veh_passenger" />
    <trip depart="62.94" departLane="best" from="172868748#2" id="veh233" to="312280065#0" type="veh_passenger" />
    <trip depart="64.29" departLane="best" from="15260400" id="veh238" to="-128511296" type="veh_passenger" />
    <trip depart="64.56" departLane="best" from="130808657#0" id="veh239" to="426603442#1" type="veh_passenger" />
    <trip depart="65.37" departLane="best" from="261785599#0" id="veh242" to="37916499" type="veh_passenger" />
    <trip depart="65.64" departLane="best" from="-430127941" id="veh243" to="-472258016" type="veh_passenger" />
    <trip depart="65.91" departLane="best" from="196799738#0" id="veh244" to="-172868948" type="veh_passenger" />
    <trip depart="67.53" departLane="best" from="-192764534" id="veh250" to="39048440#0" type="veh_passenger" />
    <trip depart="69.16" departLane="best" from="-436333210" id="veh256" to="-27639597" type="veh_passenger" />
    <trip depart="71.59" departLane="best" from="39046005#6" id="veh265" to="427243056#0" type="veh_passenger" />
    <trip depart="72.13" departLane="best" from="409861330#1" id="veh267" to="-37916466" type="veh_passenger" />
    <trip depart="72.94" departLane="best" from="-59515646#1" id="veh270" to="39082320#0" type="veh_passenger" />
    <trip depart="73.48" departLane="best" from="39051666" id="veh272" to="-27030139#5" type="veh_passenger" />
    <trip depart="74.02" departLane="best" from="-35472705" id="veh274" to="427348429" type="veh_passenger" />
    <trip depart="74.29" departLane="best" from="430128618" id="veh275" to="37916449#1" type="veh_passenger" />
    <trip depart="74.56" departLane="best" from="-38631692#0" id="veh276" to="79765662" type="veh_passenger" />
    <trip depart="75.37" departLane="best" from="237455932#0" id="veh279" to="184013925#0" type="veh_passenger" />
    <trip depart="75.64" departLane="best" from="430128415#0" id="veh280" to="430128620" type="veh_passenger" />
    <trip depart="77.53" departLane="best" from="196799735#2" id="veh287" to="425923723#1" type="veh_passenger" />
    <trip depart="80.23" departLane="best" from="-142906167#0" id="veh297" to="587922690#6" type="veh_passenger" />
    <trip depart="81.85" departLane="best" from="38738764#0" id="veh303" to="16257527" type="veh_passenger" />
    <trip depart="82.12" departLane="best" from="27639642#1" id="veh304" to="265726446" type="veh_passenger" />
    <trip depart="83.20" departLane="best" from="-436333209" id="veh308" to="-38570166#0" type="veh_passenger" />
    <trip depart="84.55" departLane="best" from="76695850#4" id="veh313" to="27733787#1" type="veh_passenger" />
    <trip depart="85.09" departLane="best" from="-427400793#2" id="veh315" to="-514557409" type="veh_passenger" />
    <trip depart="85.63" departLane="best" from="248091980#0" id="veh317" to="128515117#0" type="veh_passenger" />
    <trip depart="86.71" departLane="best" from="449611525" id="veh321" to="369907159#1" type="veh_passenger" />
    <trip depart="87.26" departLane="best" from="-426605969" id="veh323" to="-237212807#0" type="veh_passenger" />
    <trip depart="87.53" departLane="best" from="589515206#13" id="veh324" to="27030017#2" type="veh_passenger" />
    <trip depart="88.61" departLane="best" from="27238962#2" id="veh328" to="15808064#1" type="veh_passenger" />
    <trip depart="89.69" departLane="best" from="244936639" id="veh332" to="245893027" type="veh_passenger" />
    <trip depart="89.96" departLane="best" from="203314697" id="veh333" to="448210017" type="veh_passenger" />
    <trip depart="91.85" departLane="best" from="-128519864" id="veh340" to="245893027" type="veh_passenger" />
    <trip depart="92.93" departLane="best" from="38630652#0" id="veh344" to="520630589" type="veh_passenger" />
    <trip depart="93.47" departLane="best" from="37909859#0" id="veh346" to="557392497#1" type="veh_passenger" />
    <trip depart="95.36" departLane="best" from="38631705" id="veh353" to="423640299#0" type="veh_passenger" />
    <trip depart="96.71" departLane="best" from="-293597698#1" id="veh358" to="639543654#1" type="veh_passenger" />
    <trip depart="96.98" departLane="best" from="430118177#0" id="veh359" to="369907165" type="veh_passenger" />
    <trip depart="98.33" departLane="best" from="51835049#1" id="veh364" to="-427400783#1" type="veh_passenger" />
    <trip depart="99.41" departLane="best" from="37916494#2" id="veh368" to="447927890" type="veh_passenger" />
    <trip depart="99.95" departLane="best" from="-498875212" id="veh370" to="585730980#0" type="veh_passenger" />
    <trip depart="102.92" departLane="best" from="19797649#2" id="veh381" to="422062695#0" type="veh_passenger" />
    <trip depart="103.19" departLane="best" from="-38709145" id="veh382" to="71958447#4" type="veh_passenger" />
    <trip depart="105.89" departLane="best" from="269678074#0" id="veh392" to="230395374#1" type="veh_passenger" />
    <trip depart="106.44" departLane="best" from="454601627" id="veh394" to="450555265" type="veh_passenger" />
    <trip depart="106.71" departLane="best" from="-469589498" id="veh395" to="430119365" type="veh_passenger" />
    <trip depart="106.98" departLane="best" from="183489045#7" id="veh396" to="558094283" type="veh_passenger" />
    <trip depart="107.25" departLane="best" from="237470808#0" id="veh397" to="430128562" type="veh_passenger" />
    <trip depart="107.79" departLane="best" from="27644489#1" id="veh399" to="8841627#1" type="veh_passenger" />
    <trip depart="108.60" departLane="best" from="269678077#4" id="veh402" to="312295511#0" type="veh_passenger" />
    <trip depart="110.49" departLane="best" from="37916346#0" id="veh409" to="430128562" type="veh_passenger" />
    <trip depart="111.30" departLane="best" from="27661101" id="veh412" to="454570252#1" type="veh_passenger" />
    <trip depart="111.57" departLane="best" from="450680119" id="veh413" to="242493821" type="veh_passenger" />
    <trip depart="111.84" departLane="best" from="245958752#0" id="veh414" to="248091975" type="veh_passenger" />
    <trip depart="112.65" departLane="best" from="230628808#0" id="veh417" to="679178792" type="veh_passenger" />
    <trip depart="112.92" departLane="best" from="128027578" id="veh418" to="410081053-AddedOnRampEdge" type="veh_passenger" />
    <trip depart="113.73" departLane="best" from="15260356" id="veh421" to="16976549" type="veh_passenger" />
    <trip depart="114.81" departLane="best" from="53801206#0" id="veh425" to="8579741" type="veh_passenger" />
    <trip depart="115.89" departLane="best" from="38738779#1" id="veh429" to="491421502" type="veh_passenger" />
    <trip depart="118.86" departLane="best" from="48799748" id="veh440" to="39082328" type="veh_passenger" />
    <trip depart="119.13" departLane="best" from="-39081849#4" id="veh441" to="244821391#1" type="veh_passenger" />
    <trip depart="120.21" departLane="best" from="-430115790" id="veh445" to="230395575#2" type="veh_passenger" />
    <trip depart="121.02" departLane="best" from="8579169#0" id="veh448" to="14406394#3" type="veh_passenger" />
    <trip depart="121.83" departLane="best" from="38630336#1" id="veh451" to="426505734#0" type="veh_passenger" />
    <trip depart="122.91" departLane="best" from="28807590" id="veh455" to="192583208#10" type="veh_passenger" />
    <trip depart="123.18" departLane="best" from="359790121#0" id="veh456" to="38630652#1" type="veh_passenger" />
    <trip depart="124.80" departLane="best" from="39081891#0" id="veh462" to="-277478965#0" type="veh_passenger" />
    <trip depart="125.61" departLane="best" from="252792311" id="veh465" to="682460399" type="veh_passenger" />
    <trip depart="126.70" departLane="best" from="426696415#0" id="veh469" to="426506692#0" type="veh_passenger" />
    <trip depart="128.86" departLane="best" from="227607069" id="veh477" to="39081849#7" type="veh_passenger" />
    <trip depart="133.45" departLane="best" from="627182616#11" id="veh494" to="-192583208#4" type="veh_passenger" />
    <trip depart="133.72" departLane="best" from="134463317#0" id="veh495" to="244923473#4" type="veh_passenger" />
    <trip depart="133.99" departLane="best" from="626503763" id="veh496" to="444667679" type="veh_passenger" />
    <trip depart="134.53" departLane="best" from="256507153#1" id="veh498" to="73532302#4" type="veh_passenger" />
    <trip depart="134.80" departLane="best" from="131655869" id="veh499" to="231139756" type="veh_passenger" />
    <trip depart="135.61" departLane="best" from="37916343#0" id="veh502" to="39048410#0" type="veh_passenger" />
    <trip depart="137.23" departLane="best" from="448209061" id="veh508" to="172744389" type="veh_passenger" />
    <trip depart="137.50" departLane="best" from="-39056449" id="veh509" to="490216500" type="veh_passenger" />
    <trip depart="138.04" departLane="best" from="-39053421#5" id="veh511" to="-39046009" type="veh_passenger" />
    <trip depart="138.58" departLane="best" from="37909851" id="veh513" to="-172728794" type="veh_passenger" />
    <trip depart="141.28" departLane="best" from="244936602" id="veh523" to="248758079" type="veh_passenger" />
    <trip depart="141.55" departLane="best" from="231341699#1" id="veh524" to="231341014#1" type="veh_passenger" />
    <trip depart="142.09" departLane="best" from="504626071" id="veh526" to="-27030089#1" type="veh_passenger" />
    <trip depart="142.63" departLane="best" from="-27030032#2" id="veh528" to="128515118#2" type="veh_passenger" />
    <trip depart="143.71" departLane="best" from="284347441#3" id="veh532" to="-334003225#0" type="veh_passenger" />
    <trip depart="144.79" departLane="best" from="212723116" id="veh536" to="-516736615" type="veh_passenger" />
    <trip depart="145.34" departLane="best" from="183752955" id="veh538" to="-293597698#0" type="veh_passenger" />
    <trip depart="146.15" departLane="best" from="543486851" id="veh541" to="-255905293#2" type="veh_passenger" />
    <trip depart="146.96" departLane="best" from="426927738#3" id="veh544" to="337854406#2" type="veh_passenger" />
    <trip depart="147.77" departLane="best" from="131628108#0" id="veh547" to="39078041#1" type="veh_passenger" />
    <trip depart="150.20" departLane="best" from="427243062#1" id="veh556" to="38550804#3" type="veh_passenger" />
    <trip depart="150.47" departLane="best" from="369907195#1" id="veh557" to="-172728794" type="veh_passenger" />
    <trip depart="152.63" departLane="best" from="405498518#0" id="veh565" to="-465895356#0" type="veh_passenger" />
    <trip depart="154.25" departLane="best" from="37909866#1" id="veh571" to="27030148#2" type="veh_passenger" />
    <trip depart="155.06" departLane="best" from="192583209#0" id="veh574" to="131655879" type="veh_passenger" />
    <trip depart="155.87" departLane="best" from="171847501" id="veh577" to="37916405#0" type="veh_passenger" />
    <trip depart="156.14" departLane="best" from="-133125062#1" id="veh578" to="154421023#0" type="veh_passenger" />
    <trip depart="157.76" departLane="best" from="430113812#0" id="veh584" to="430127942" type="veh_passenger" />
    <trip depart="158.30" departLane="best" from="-231342607" id="veh586" to="-14520855" type="veh_passenger" />
    <trip depart="159.11" departLane="best" from="39048531#0" id="veh589" to="236732296#0" type="veh_passenger" />
    <trip depart="159.38" departLane="best" from="-37916533#2" id="veh590" to="-16257487#0" type="veh_passenger" />
    <trip depart="160.73" departLane="best" from="27660279#0" id="veh595" to="277135943" type="veh_passenger" />
    <trip depart="161.54" departLane="best" from="-418365015" id="veh598" to="27639806#2" type="veh_passenger" />
    <trip depart="162.89" departLane="best" from="-39053438#0" id="veh603" to="-430127944" type="veh_passenger" />
    <trip depart="164.52" departLane="best" from="27333963#0" id="veh609" to="39014084#1" type="veh_passenger" />
    <trip depart="165.60" departLane="best" from="-53801293" id="veh613" to="128515117#0" type="veh_passenger" />
    <trip depart="165.87" departLane="best" from="-248091975" id="veh614" to="27639646#1" type="veh_passenger" />
    <trip depart="166.68" departLane="best" from="-27639629#1" id="veh617" to="450556924" type="veh_passenger" />
    <trip depart="167.49" departLane="best" from="27030005#0" id="veh620" to="430122065#1" type="veh_passenger" />
    <trip depart="168.03" departLane="best" from="426696446" id="veh622" to="39051476#1" type="veh_passenger" />
    <trip depart="170.46" departLane="best" from="-490216495#1" id="veh631" to="231355578#1" type="veh_passenger" />
    <trip depart="171.27" departLane="best" from="-27030074#2" id="veh634" to="-28807488#0" type="veh_passenger" />
    <trip depart="172.35" departLane="best" from="124962751#0" id="veh638" to="370514752#3" type="veh_passenger" />
    <trip depart="172.89" departLane="best" from="679184990" id="veh640" to="422062701#1" type="veh_passenger" />
    <trip depart="174.24" departLane="best" from="427400712#1" id="veh645" to="425942443#1" type="veh_passenger" />
    <trip depart="174.78" departLane="best" from="369907199#6" id="veh647" to="237455898#2" type="veh_passenger" />
    <trip depart="176.94" departLane="best" from="-229479996" id="veh655" to="183489044" type="veh_passenger" />
    <trip depart="177.75" departLane="best" from="427400925#3" id="veh658" to="427253375" type="veh_passenger" />
    <trip depart="178.02" departLane="best" from="426696438" id="veh659" to="-425930861#1" type="veh_passenger" />
    <trip depart="179.10" departLane="best" from="415845844#0" id="veh663" to="244936675#0" type="veh_passenger" />
    <trip depart="179.91" departLane="best" from="430118176#0" id="veh666" to="211060855#2" type="veh_passenger" />
    <trip depart="180.99" departLane="best" from="679174598#0" id="veh670" to="430128409" type="veh_passenger" />
    <trip depart="182.61" departLane="best" from="424217266#6" id="veh676" to="128511297#1" type="veh_passenger" />
    <trip depart="182.88" departLane="best" from="491638975" id="veh677" to="-39077897#0" type="veh_passenger" />
    <trip depart="184.24" departLane="best" from="-430128619" id="veh682" to="8579208#1" type="veh_passenger" />
    <trip depart="185.59" departLane="best" from="427400778#2" id="veh687" to="418821251" type="veh_passenger" />
    <trip depart="188.83" departLane="best" from="-431548666#1" id="veh699" to="-39053438#2" type="veh_passenger" />
    <trip depart="189.37" departLane="best" from="-431548664#1" id="veh701" to="235695427" type="veh_passenger" />
    <trip depart="190.18" departLane="best" from="245958752#2" id="veh704" to="27639646#1" type="veh_passenger" />
    <trip depart="191.53" departLane="best" from="425934934#0" id="veh709" to="184855990" type="veh_passenger" />
    <trip depart="192.61" departLane="best" from="261785598#0" id="veh713" to="430128169" type="veh_passenger" />
    <trip depart="194.23" departLane="best" from="-237455923#0" id="veh719" to="-430128415#0" type="veh_passenger" />
    <trip depart="194.50" departLane="best" from="-230784544#1" id="veh720" to="557392497#1" type="veh_passenger" />
    <trip depart="194.77" departLane="best" from="241249698#4" id="veh721" to="8547744#1" type="veh_passenger" />
    <trip depart="195.04" departLane="best" from="255845157#1" id="veh722" to="-75329379" type="veh_passenger" />
    <trip depart="195.31" departLane="best" from="423976020#0" id="veh723" to="-430124253" type="veh_passenger" />
    <trip depart="195.58" departLane="best" from="131655864" id="veh724" to="428102023#0" type="veh_passenger" />
    <trip depart="195.85" departLane="best" from="439894869#0" id="veh725" to="172868865" type="veh_passenger" />
    <trip depart="196.66" departLane="best" from="477587486#0" id="veh728" to="230628518" type="veh_passenger" />
    <trip depart="197.74" departLane="best" from="39080252#0" id="veh732" to="-27587529#2" type="veh_passenger" />
    <trip depart="198.01" departLane="best" from="278992352#1" id="veh733" to="430128620" type="veh_passenger" />
    <trip depart="198.28" departLane="best" from="260203873" id="veh734" to="171848999#1" type="veh_passenger" />
    <trip depart="199.36" departLane="best" from="130808657#0" id="veh738" to="-221635258#3" type="veh_passenger" />
    <trip depart="200.44" departLane="best" from="-27639616" id="veh742" to="39046000" type="veh_passenger" />
    <trip depart="200.71" departLane="best" from="133124798#0" id="veh743" to="430127541" type="veh_passenger" />
    <trip depart="201.79" departLane="best" from="-27030123#1" id="veh747" to="427400827" type="veh_passenger" />
    <trip depart="202.33" departLane="best" from="27474566#0" id="veh749" to="37916533#2" type="veh_passenger" />
    <trip depart="203.96" departLane="best" from="39117190" id="veh755" to="27639581#0" type="veh_passenger" />
    <trip depart="204.23" departLane="best" from="16257975#0-AddedOnRampEdge" id="veh756" to="33968269" type="veh_passenger" />
    <trip depart="204.77" departLane="best" from="211455034" id="veh758" to="8579643#0" type="veh_passenger" />
    <trip depart="205.04" departLane="best" from="-490216503" id="veh759" to="517095027" type="veh_passenger" />
    <trip depart="205.58" departLane="best" from="431548664#0" id="veh761" to="246307536#3" type="veh_passenger" />
    <trip depart="206.39" departLane="best" from="430126619#0" id="veh764" to="171847941#0" type="veh_passenger" />
    <trip depart="207.20" departLane="best" from="430128621" id="veh767" to="424389521#0" type="veh_passenger" />
    <trip depart="207.74" departLane="best" from="426505717#1" id="veh769" to="27639660" type="veh_passenger" />
    <trip depart="210.44" departLane="best" from="72767353#1" id="veh779" to="39048433#0" type="veh_passenger" />
    <trip depart="212.06" departLane="best" from="-248091972" id="veh785" to="-38738603#2" type="veh_passenger" />
    <trip depart="213.95" departLane="best" from="-53801293" id="veh792" to="283003800" type="veh_passenger" />
    <trip depart="214.49" departLane="best" from="589515206#8" id="veh794" to="-39117744#4" type="veh_passenger" />
    <trip depart="219.62" departLane="best" from="-678523291" id="veh813" to="25619383#1" type="veh_passenger" />
    <trip depart="220.43" departLane="best" from="15808057#0" id="veh816" to="38570166#2" type="veh_passenger" />
    <trip depart="220.70" departLane="best" from="-436333187" id="veh817" to="450686064" type="veh_passenger" />
    <trip depart="220.97" departLane="best" from="-39081891#0" id="veh818" to="172728802#1" type="veh_passenger" />
    <trip depart="221.78" departLane="best" from="241249683" id="veh821" to="27639579#2" type="veh_passenger" />
    <trip depart="222.05" departLane="best" from="-577923696#0" id="veh822" to="-171847846#1" type="veh_passenger" />
    <trip depart="223.41" departLane="best" from="373580560" id="veh827" to="262851660#0" type="veh_passenger" />
    <trip depart="223.68" departLane="best" from="251712235#1" id="veh828" to="438470920#1" type="veh_passenger" />
    <trip depart="224.22" departLane="best" from="39081420#1" id="veh830" to="427018829#1" type="veh_passenger" />
    <trip depart="225.30" departLane="best" from="237455912" id="veh834" to="427018842#2" type="veh_passenger" />
    <trip depart="226.65" departLane="best" from="587918131#1" id="veh839" to="426696410#1" type="veh_passenger" />
    <trip depart="226.92" departLane="best" from="-430115790" id="veh840" to="27639664#1" type="veh_passenger" />
    <trip depart="227.19" departLane="best" from="237048446#1" id="veh841" to="-230784024" type="veh_passenger" />
    <trip depart="227.73" departLane="best" from="230784541" id="veh843" to="248091975" type="veh_passenger" />
    <trip depart="229.08" departLane="best" from="125451142#1" id="veh848" to="431548667" type="veh_passenger" />
    <trip depart="229.89" departLane="best" from="134365461#4" id="veh851" to="39081857#3" type="veh_passenger" />
    <trip depart="230.43" departLane="best" from="426506683#1" id="veh853" to="425458286#1" type="veh_passenger" />
    <trip depart="230.97" departLane="best" from="231281375#1" id="veh855" to="672784703#5" type="veh_passenger" />
    <trip depart="231.24" departLane="best" from="425925638#2" id="veh856" to="427400793#2" type="veh_passenger" />
    <trip depart="233.67" departLane="best" from="181593980#0" id="veh865" to="427400712#1" type="veh_passenger" />
    <trip depart="235.02" departLane="best" from="245629360" id="veh870" to="16765274#3" type="veh_passenger" />
    <trip depart="236.10" departLane="best" from="369907196#1" id="veh874" to="416453603" type="veh_passenger" />
    <trip depart="236.91" departLane="best" from="-430128044" id="veh877" to="71958447#1" type="veh_passenger" />
    <trip depart="237.45" departLane="best" from="-430123092" id="veh879" to="424211551#10" type="veh_passenger" />
    <trip depart="237.99" departLane="best" from="576932609" id="veh881" to="430125563" type="veh_passenger" />
    <trip depart="240.69" departLane="best" from="39014083" id="veh891" to="-39049641#1" type="veh_passenger" />
    <trip depart="242.59" departLane="best" from="265227053#7" id="veh898" to="53826080#1" type="veh_passenger" />
    <trip depart="243.67" departLane="best" from="-682460399" id="veh902" to="39048508#1" type="veh_passenger" />
    <trip depart="243.94" departLane="best" from="499375392" id="veh903" to="-27667447#1" type="veh_passenger" />
    <trip depart="244.21" departLane="best" from="27639582#2" id="veh904" to="28807588#0" type="veh_passenger" />
    <trip depart="247.45" departLane="best" from="587918116#0" id="veh916" to="438471238" type="veh_passenger" />
    <trip depart="248.26" departLane="best" from="23013179#0" id="veh919" to="-79172230" type="veh_passenger" />
    <trip depart="249.88" departLane="best" from="-426927700" id="veh925" to="-39053420#0" type="veh_passenger" />
    <trip depart="252.04" departLane="best" from="172744225" id="veh933" to="27639613#3" type="veh_passenger" />
    <trip depart="252.58" departLane="best" from="-59515636" id="veh935" to="-381973560" type="veh_passenger" />
    <trip depart="252.85" departLane="best" from="51835049#1" id="veh936" to="142914139#1" type="veh_passenger" />
    <trip depart="253.39" departLane="best" from="-39048442#0" id="veh938" to="-39117733#1" type="veh_passenger" />