<routes xmlns:xsi="http://www.w3.org/2001/XMLSchema-instance" xsi:noNamespaceSchemaLocation="http://sumo.dlr.de/xsd/routes_file.xsd">
    <vType id="veh_passenger" vClass="passenger" />
    <vehicle depart="1.08" departLane="best" id="veh4" type="veh_passenger">
        <route edges="184765909#3 358278701 184765909#0 244923481 -184765907 37909828 244923470#0 244923470#1 231404791 196799730#6 8578537#0 129439666 426510831 8578563#0 8578563#1 8090812 578287066#0 578287066#2 196799733#0 196799733#1 230628541#0 230628541#1 230628541#2 230628541#3 230628541#4 230628541#5 230628537#0 230628537#1 230628537#2 230628537#3 230628537#4 230628537#5 230628537#6 230628537#7 282974683#0 282974683#1 230628536#0 230628536#1 230628536#2 230628536#3 230628536#4 230628536#5 230628536#6 230628531#0 230628531#1 230628531#2 241318602#0 241318602#1 241318602#2 241318602#3 -261785598#1 -183853700#1 -183853700#0 -183853709" />
    </vehicle>
    <vehicle depart="1.35" departLane="best" id="veh5" type="veh_passenger">
        <route edges="-430127812 430127813#1 172433907#2 -231281379 577947621#0 577947621#1 577947621#2 577947621#3 425930860 -425930848 -578707887#2 -578707887#1 -578707887#0 -196799728 -217333504 -439765511 -183853693#2 -183853693#1 -577926287#4 38630646 71958447#2 27666905#2 230628530#0 230628530#1 230628530#2 230628530#3 230628530#4 635399925 230628530#7 230628542 426696447 426696446 426696449#1 426696441#1 426696452#1 426696444#0 426696444#1 359790090#0 359790090#1 426696442 426696453#1 426696453#2 426602676#1 426605956#6 576954815 -27660267#1 -27660267#0 231350447#3 231350476 231350458#0 231350458#1 231350458#2 231350458#3 231350477#0 231350477#1 230784086#0 230784086#1 370514753#0 370514753#1 27644520#0 27644520#1 27639630#0 27639631#0 27639631#1" />
    </vehicle>
    <vehicle depart="2.43" departLane="best" id="veh9" type="veh_passenger">
        <route edges="426696438 576954815 576954816#0 576954816#1 576954816#2 576954816#3 337865806 27660307 407757111#0 407757111#1 407757111#2 -14521385#0 28788350#0 28788350#1 211456025 460071969 638729322#0 638729322#2 638729322#3 638729322#4 638729322#5 638729322#6 638729322#7 638729322#8 638729322#9 638729322#10 638729322#11 577924801 28725762 176499525 231281377#0 38738786 427400671#6 27030066#0 27030066#1 27030066#2 27030066#3 27030066#4 27030066#5 27030066#6 27030066#7 27030066#8 27030066#9 211061213#0 211061213#1 211061210#0 211061210#1-AddedOnRampEdge 211061210#1 39081434#0 39081434#1 39081434#2 39081434#3 39081434#4 -128519864 79669498#0 79669498#1 128511291#0 128511291#1 128511291#2 620987193#0 620987193#1 183462527#1 183462563-AddedOnRampEdge 183462563 15260367 15260367-AddedOffRampEdge 15260361 457093355#0 457093355#2 457093355#3 38709148#0 38709148#1 128508563#7 -128511300" />
    </vehicle>
    <vehicle depart="2.97" departLane="best" id="veh11" type="veh_passenger">
        <route edges="128508553 37916494#1 37916494#2 37916494#3 37916524#3 128508563#4 128508563#5 128508563#6 128508563#7 128508563#8 128508563#9 230398376 17446828 237048431 235497116 128519863#0 128519863#1 229739163 212723119#1 212723119#3 565903323#0 565903323#1 128519864 211060895 237212803#0 237212803#1 237212803#2 237212803#3 -211061213#1 -211061213#0 -211455037#3 -211455037#2 -211455037#1 -211455037#0 60252054 -244936600 -244936602 -211455035#4 -211455035#3 -211455035#2 -211455035#1 -211455035#0 -27030148#2 -27030148#1 -27030148#0 38738777#0 38738777#1 38738777#2 38738777#4 38738775#0 38738775#1 38738775#2 38738775#3 -62263982#1 -62263982#0 -39117758#0" />
    </vehicle>
    <vehicle depart="4.05" departLane="best" id="veh15" type="veh_passenger">
        <route edges="426696421#2 426696410#1 426696411 230628527#0 230628527#1 577926288 38630642#0 -236120863#2 -236120863#1 -236120863#0 236120862#1 236120862#2 236120862#3 425923713 576932607#0 425930851 577909639#1 199121003 62265344#0 62265344#1 62265345#1 133124798#0 133124798#1 8579904#0 8579904#1 289936233 454570243 48661212#0 48661212#1 470252928 48661202#1 425850168" />
    </vehicle>
    <vehicle depart="4.32" departLane="best" id="veh16" type="veh_passenger">
        <route edges="251629012 -133125062#0 -454570241 179551763 470252930#1 470252930#2 470252930#3 48661200#1 425850165#1 -425850167 -278916129#3 -278916129#2 -278916129#1 -278916129#0 577909640#0 577909640#1 425929198 577930660 -425929196#2 -425929196#1 -425929196#0 -577923696#1 -577923696#0 -425925652 425925650 38631699#1 38631699#2 38631699#3 38631699#4 38631699#5 27666905#0 27666905#1 71958447#3" />
    </vehicle>
    <vehicle depart="4.59" departLane="best" id="veh17" type="veh_passenger">
        <route edges="15069448 589515206#0 424210747#0 211556987#10 211556987#11 211556987#12 230628541#0 230628541#1 230628541#2 230628541#3 230628541#4 230628541#5 230628537#0 230628537#1 230628537#2 230628519#0 230628519#1 230628519#2 230628519#3 230628519#4 230628519#5 230628519#6 230628519#7 230628519#8 424211900#1 424211900#2 424211905#5 424211905#6 330594194" />
    </vehicle>
    <vehicle depart="4.86" departLane="best" id="veh18" type="veh_passenger">
        <route edges="427400766#1 427400671#2 38738780 62268206 211456024 211456026#0 577924800#2 577924800#4 28725760#0 28725760#1 28725760#2 241318604#0 241318604#1 230628539#0 230628539#1 230628539#2 231341013#0 231341013#1 231341013#2 231341013#3 230628530#0 230628530#1 230628530#2 230628530#3 230628530#4 635399925 230628530#7 230628533#0 230628533#1 230628533#2 230628533#3 230628533#4 423987651#0 16257538#0 16257538#1 471622251 471622252 199918918#0 199918918#1 199918918#2 199918918#3 38630328#0" />
    </vehicle>
    <vehicle depart="5.67" departLane="best" id="veh21" type="veh_passenger">
        <route edges="-430128169 547305685#1 447117757#2 447117757#3 447117757#4 447117757#5 447117757#6 447117757#7 132236345#0 132236345#1 132236345#2 132236345#3 132236345#4 132236345#5 132236345#6 132236345#7 132236345#8 237587387#0 237587387#1 237587387#2 299532298 183462531 299532299 183752948 183462542#0 183462542#1 183462562#0 183462562#1 183462562#2 310454393 371375600#0 371375600#1 128515111 620987193#0 620987193#1 229739161#0 229739161#0-AddedOffRampEdge 229739161#1 212723116 168667916 278920581 241926086 565519143 72921505 524255618#0 524255618#1 14409243 454570246 134363382" />
    </vehicle>
    <vehicle depart="6.21" departLane="best" id="veh23" type="veh_passenger">
        <route edges="-34439046#5 -34439046#0 -448210020 -448210021#1 -448210021#0 -171847846#5 -171847846#4 -171847846#3 -171847846#2 -171847846#1 -171847846#0 171848080 448210016 171847941#0 171847941#0-AddedOffRampEdge 171847941#1 171847941#2 171847964#0 171847964#1 597462036 312277539 15808047#0 15808047#1 15808064#1 15808064#2 423496969 358278704#0 358278704#1 423497710#0 423497710#1 424410718 424415196#1 424415196#2 424419378#4 424419378#5 424419378#6 424419378#7 424389521#0 424389521#1 424389521#2 409861328#1 409861330#0 409861330#1 68280131#0 230621491 8579917 231226534 409861831#0 409861831#1 409861831#2 470252928 48661202#1 425850168 46892383 470252931 425846511#0 425846511#1 425849973 8579093#0 8579093#1 234827311#1 234827311#2 252274190 8103465#0 8103465#1 223479041#0 223479041#1 8103470#0 8579183 211060852#0 211060852#1 211060852#2 8579184 196799745#1 8579185 -189938124 211060857#0 211060857#1-AddedOnRampEdge 211060857#1 -211060895 -128519864 79669498#0 79669498#1 128511291#0 128511291#1 128511291#2 128511291#3 237169411 310454389 37916642#1 37916642#2 37916655#0 37916655#1 157187728 183752953 183752954#0 183752954#1 183752954#2 237587397#0 37916626#0 37916626#1 430128479 130808658#1 130808658#2" />
    </vehicle>
    <vehicle depart="7.02" departLane="best" id="veh26" type="veh_passenger">
        <route edges="-450505896 59515641#1 59515641#2 -172744225 -237455929 -237455928#1 -237455928#0 -172744182#1 -172744182#0 39049665#0 39049665#1 438224045 587922690#16 587922690#17 587922690#18 503240114 587922690#20 587922690#21 587922690#22 16765621#0 8578850#0 171848925#1 16765621#2 167131039#0 167131039#1 167131031 231404792#0 247061290#0 172297055 196799730#0 196799730#1 196799730#2 196799730#3 196799730#4 196799730#5 196799730#6 8578537#0 129439666 426510831 8578563#0 8578563#1 8090812 578287066#0 578287066#2 196799733#0 196799733#1 230628541#0 230628541#1 230628541#2 230628541#3 230628541#4 230628541#5 230628537#0 230628537#1 230628537#2 230628537#3 230628537#4 230628537#5 230628537#6 230628537#7 282974683#0 282974683#1 230628536#0 230628536#1 230628536#2 230628536#3 230628536#4 230628536#5 230628536#6 230628531#0 230628531#1 230628531#2 241318602#0 241318602#1 241318602#2 241318602#3 230628520#0 230628520#1 261785599#0 261785599#1 261785599#2 261785599#3 230628521#0 230628521#1 230628521#2 230628521#3 231390618#0 231390618#1 231390618#2 231390618#3 231390618#4 577924801 28725762 176499525 241249712#8 241249712#10 427400766#1 427400766#3 427400867#2 -427400930 -363528979#1 -363528979#0 -38738605#6 -38738605#5 -38738605#4 -38738605#2 -38738605#1 27030148#1 27030148#2 211455040 244936702#0 244936702#1 244936702#2 211455038 56394532#0 56394532#1 56394532#2 39082313#0 39082313#1 39082313#2 39082313#3 427400926#2 39082302#1 56394526#2 56394526#3 56394526#4 56394188" />
    </vehicle>
    <vehicle depart="7.56" departLane="best" id="veh28" type="veh_passenger">
        <route edges="-424416256 424416261 424421112#1 423497710#1 424410718 424415196#1 424415196#2 424419378#4 424419378#5 424419378#6 424419378#7 424389521#0 424389521#1 424389521#2 409861328#1 409861330#0 409861330#1 68280131#0 230621491 8579917 231226534 409861831#0 409861831#1 409861831#2 470252928 48661202#1 425850168 46892383 470252931 425846511#0" />
    </vehicle>
    <vehicle depart="8.91" departLane="best" id="veh33" type="veh_passenger">
        <route edges="-430128406 310454387#2 310454387#3 128511294#0 142906167#0 142906167#1 142906167#2 157188563#9 157188563#10 157188563#11 299532299 183462553 183752953 385517862 -237587387#2 -237587387#1 -237587387#0 131655875#0 131655875#1 299532297#0 299532297#1 299532297#2 299532297#3 299532297#4 299532297#5 672784703#4 672784703#5 251712234#0 251712234#1 27029988 278992352#0 27029997#7 27029997#8 27029997#9 -545465138#2 27030139#0 27030139#1 -405489977#0 -27030148#2 -27030148#1 -27030148#0 38738777#0 38738777#1 38738776#0 38738776#1 38738776#2 363528979#0 363528979#1 363528979#2 246708373 38738780 62268206 211456024 211456026#0 577924800#2 577924800#4 8578611 427243067 426927728#0 426927728#1 426927728#2 426927728#3 426927728#5 425942465#1 426927766#1 27668372#0 27668372#1 425942461 -425942443#2 -425942443#1 -425942443#0 8547794#0 8547794#1 8547794#2 415845846 325044597#0 325044597#1 351360736 325044599#0 325044599#2 521396096#0 521396096#1 231350471 255818931#2 8547727#0 -27660308 -239019901#2 -239019901#1 -239019901#0 -239019900 -188303695#1" />
    </vehicle>
    <vehicle depart="10.27" departLane="best" id="veh38" type="veh_passenger">
        <route edges="517412540 229481317 679168122 366497294#0 366497294#1 577924801 28725762 176499525 241249712#8 241249683 517410413#1 517410413#2 517410413#3 241249687-AddedOnRampEdge 241249687 241249687-AddedOffRampEdge 172433907#0 172433907#1 172433907#2 231281387 172433906 524487872#0 524487872#1 252274186 252274187#0 252274187#1 252274187#1-AddedOffRampEdge 565531844 8579499 48651839 8579495 8579488#0 8579488#1 251628568#0 251628568#0-AddedOffRampEdge 251628568#1 251628568#2-AddedOnRampEdge 251628568#2" />
    </vehicle>
    <vehicle depart="10.81" departLane="best" id="veh40" type="veh_passenger">
        <route edges="27030143#0 27030143#1 27030143#2 27030143#3 27030143#4 211455032#0 211455036 211455034 211455035#0 211455035#1 211455035#2 -123103598#1 -123103598#0 -217479458#0 38738605#4 38738605#5 38738605#6 363528979#0 363528979#1 363528979#2 246708373 38738780 62268206 211456024 211456026#0 577924800#2 577924800#4 8578611 427243067 426927728#0 426927728#1 426927728#2 426927728#3 426927728#5 425942465#1 426927766#1 27668372#0 27668372#1 425942461 -425942443#2 -425942443#1 -425942443#0 8547794#0 8547794#1 8547794#2 415845846 325044597#0 325044597#1 351360736 325044599#0 325044599#2 125451184#0 255818947#0 439768950#0 8149120#0 8149120#1 8149120#2 8149120#3 8149120#4 231350472#1 427018817#1 427018817#2 427018758#3 427018758#4 427018758#5 427018829#3 427018829#4 427018831 369915384#2 255845157#0 255845157#1 124962721#0" />
    </vehicle>
    <vehicle depart="13.51" departLane="best" id="veh50" type="veh_passenger">
        <route edges="-151882388#1 -151882388#0 14406394#3 422062695#0 422062695#1 27611266 498338005 290026189#2 231281378#1 231281378#2 231281378#3 241249715 241249716#2 8103468#1 8103468#2 196799735#2 231281381#1 231281381#2 231281385#1 231281385#2 211060858 424630860#0 424630860#1 424630860#2 424630860#3 -424630814#1 -424630814#0 141294961#0 141294961#2 424630827#0 424630827#1" />
    </vehicle>
    <vehicle depart="15.13" departLane="best" id="veh56" type="veh_passenger">
        <route edges="237048465#1 683275990#3 237048500 37916346#0 37916346#1 237048499#0 237048499#1 237048499#2 237048499#3 237048499#4 245958752#0 245958752#2 245958755 51835024 8375719#0 8375719#1 333520062#4 333520062#4-AddedOffRampEdge 333520062#5 8375715#0 8375715#1 8375715#2 454562735 128515114 235497128#0 235497128#1 37916545 212723117#0 212723117#1 212723117#3 235497116 128519863#0 128519863#1 229739163 212723119#1 212723119#3 565903323#0 565903323#1 128519864 211060895 237212803#0 237212803#1 237212803#2 237212803#3 -211061213#1 -211061213#0 -211455037#3 -211455037#2 -211455037#1 -211455037#0 60252054 -244936600 -244936602 -211455035#4 -211455035#3 -211455035#2 -211455035#1 -211455035#0 -27030148#2 -27030148#1 -27030148#0 38738777#0 38738777#1 38738776#0 38738776#1 38738776#2 363528979#0 363528979#1 363528979#2 246708373 -427400671#2 -427400671#1 -427400671#0 -427400735 684441566 246708365 -33899996#3 -33899996#2 -33899996#1 -427348400 -427348529" />
    </vehicle>
    <vehicle depart="16.21" departLane="best" id="veh60" type="veh_passenger">
        <route edges="424217262#2 424217366#8 244821385#0 244821385#1 424211549#0 424211551#2 424211551#3 424211551#4 424211551#5 679196996 426696435#0 426696435#1 426696435#2 85796593#1 85796593#2 359790120#0 301151224" />
    </vehicle>
    <vehicle depart="16.75" departLane="best" id="veh62" type="veh_passenger">
        <route edges="-124962747#2 27644489#1 -27639641#2 -27639641#1 -27639641#0 -27644520#0 -370514753#1 -370514753#0 -230784086#1 -230784086#0 230784085#0 230784085#1 230784085#3 231350452#1 427253368#1 231350459#0 231350459#1 231350459#2 231350459#3 4567097 231345867#0 231345867#1 450833653#0-AddedOnRampEdge 450833653#0 450833653#1 426504423 407753019#0 407753019#1 407753019#2 221635256#0 172297075#4 172297075#5" />
    </vehicle>
    <vehicle depart="17.83" departLane="best" id="veh66" type="veh_passenger">
        <route edges="454570242 133125062#0 133125062#1 133125062#2 251629004#0 251629004#1 586624080 133124802 133124801#0 133124801#1 454680853 211556995#0 211556995#1 424396207#0 424396207#1 424396207#2 424396207#3 27238788#0 27238788#1 27238788#2 27238788#3 -428733941 -230629149 428733944 358278706#0 358278706#1 34436958#1 34436958#2 -423496969 230629147#0 230629147#1 230629147#2 230629147#3 230629147#4 448210017 38585129#0 38585129#1 38585129#2 448210015#0 231404625 171847845#0 171847845#1 171847845#2 171847845#3 171847845#4 76695773#0 76695773#1 76695773#2 76695773#3 76695773#4 171847502#0 171847502#0-AddedOffRampEdge 171847502#1 171847502#2 39056485 231404788#2 231404788#3 167131057#0 167131057#1 167131058#0 167131058#1 14520294 16257975#0-AddedOnRampEdge 16257975#0 16257975#1 -438224045 -39049665#1 -39049665#0 172744182#0 172744182#1 237455928#0 237455928#1 237455929 123374521#0 237455898#4 237455898#7 237455898#8 14714692#1 587922691 237612874 587922690#0 587922690#1" />
    </vehicle>
    <vehicle depart="18.37" departLane="best" id="veh68" type="veh_passenger">
        <route edges="-27030148#1 -27030148#0 38738777#0 38738777#1 38738776#0 38738776#1 38738776#2 363528979#0 363528979#1 363528979#2 246708373 38738780 62268206 211456024 211456026#0 577924800#2 577924800#4 8578611 427243067 426927728#0 426927728#1 426927713#0 426927713#1 426927761#3" />
    </vehicle>
    <vehicle depart="18.64" departLane="best" id="veh69" type="veh_passenger">
        <route edges="424396207#3 27238788#0 27238788#1 27238788#2 27238788#3 -428733941 -230629149 428733944 358278706#0 358278706#1 34436958#1 34436958#2 -423496969 230629147#0 230629147#1 230629147#2 230629147#3 230629147#4 448210017 38585129#0 38585129#1 38585129#2 448210015#0 231404625 171847845#0 171847845#1 171847845#2 171847845#3 171847845#4 76695773#0 76695773#1 76695773#2 76695773#3 76695773#4 171847502#0 171847502#0-AddedOffRampEdge 171847502#1 171847502#2 39056485 231404788#2 231404788#3 167131057#0 167131057#1 167131058#0 167131058#1 14520294 16257975#0-AddedOnRampEdge 16257975#0 16257975#1 -438224045 -39049665#1 -39049665#0 172744182#0 172744182#1 237455928#0 237455928#1 237455929 172744225 -59515641#2 -59515641#1 -59515641#0 59515639 -565483609 -39014081#2 -39014081#1" />
    </vehicle>
    <vehicle depart="18.91" departLane="best" id="veh70" type="veh_passenger">
        <route edges="231281381#2 430125562 211060855#2 231281388#2 196799738#0 425927089 428111149#0 428111149#1 16652239 425927090 197054866#2 -197054862 -425926837 -425926838 -425930849#1 -425930849#0 -231341699#1 -231341699#0 -425930850#0 -425930847 -425930848 -578707887#2 -578707887#1 -578707887#0 -196799728 -217333504 -439765511 -183853693#2 -183853693#1 -577926287#4 38630646 71958447#2 71958447#3 71958447#4 71958447#5 71958447#6 71958447#7 72767350 72767317#1 72767317#2 428721903 424210747#0 211556987#10 211556987#11 211556987#12 230628534#1 230628534#2 196799732 230783567#1 230783567#2 230783567#3 186496572#0 186496572#1 186496572#2 186496572#3 186496572#4 407769038#2 9931243 262851659 8148347 513802091 262851657#0 262851657#1 262851657#2 262851657#3 262851657#4 423517227#1 423517227#2 423517339#0 614007812 284347438#0 284347438#1 450833652#0 450833652#1 231345864 231345866 451601406 329262587#0 329262587#1 329261736#1 329094557#3" />
    </vehicle>
    <vehicle depart="20.26" departLane="best" id="veh75" type="veh_passenger">
        <route edges="8579414#0 -8579409 141294961#2 141294961#3 141294961#4 424630807#1 424630819#6 278920581 241926086 565519143 72921505 524255618#0 524255618#1 14409243 554707179#1 454570248 454570251 454693651 454697529#0 454697529#1 454693652 454698074 424396207#0 424396207#1 424396207#2 424396207#3 27238788#0 27238788#1 27238788#2 27238788#3 -428733941 -230629149 428733944 358278706#0 358278706#1 34436958#1 34436958#2 -423496969 230629147#0 230629147#1 230629147#2 230629147#3 230629147#4 448210017 38585129#0 38585129#1 38585129#2 448210015#0 231404625 171847845#0 171847845#1 171847845#2 171847845#3 171847845#4 76695773#0 76695773#1 76695773#2 76695773#3 76695773#4 -247061292 171847101#0 171847101#1 134462241#0 134462241#1 134462241#1-AddedOffRampEdge 171848998#0 171848998#1 -171848926#1 -171848926#0 -351751479 -39049620#1 -39049636#2 -39049636#1 39049638#0" />
    </vehicle>
    <vehicle depart="20.53" departLane="best" id="veh76" type="veh_passenger">
        <route edges="19797649#1 19797649#2 -38841784#3 237470811#1 237470811#2 237470811#3 587922690#12 587922690#13 -19796858#2 -19796858#1 -19796858#0 -76695850#3 -76695850#2 -76695850#1 -19796862#2 -19796862#1 -19796862#0 19796861#0 19796861#1 4567098 392337841 16238205#0 265227055#1 325319811#0 325319811#1 325319811#2 426504424 407753018#0 407753018#1 407753018#2 231345868 229480219#0 229480219#1 427253366#1 427253366#4 427253366#7 230784087#1 230784087#3 230784087#4 231350481#0 231350481#1 231350481#2 231350481#3 231350481#4 231350475#0 231350475#1 231350475#2 231350483#0 231350483#1 231350483#3 231350483#4 427018864#1 231350482#1 231350482#2 576954816#2 576954816#3 337865806 27660307 407757111#0 407757111#1 407757111#2 407757111#3 407757111#4 27667495#1 27667560" />
    </vehicle>
    <vehicle depart="21.61" departLane="best" id="veh80" type="veh_passenger">
        <route edges="-27586531 229481575#1 229481575#2 487911486#1 487911486#2 487911486#3 487911486#4 487911486#5 487911486#6 27587529#0 27587529#1 27587529#2 27587529#3 27587529#4 27587529#5 369907197#0 369907197#1 369907197#2 369907197#3 27639585#0 27639585#1 27639585#2 27639585#3 27639585#4 27639585#5 27639561#0 27639561#1 27639561#2 27644492#0 27644492#1 -27644520#5 -27644520#4 -27644520#3 -27644520#2 -27644520#1 -27644520#0 -370514753#1 -370514753#0 -230784086#1 -230784086#0 231350481#0 231350481#1 231350481#2 231350481#3 231350451 231350454 231350473#0 231350455#2 231350455#3 423976020#0 423976020#1 423976020#2 424211905#0 424211905#1 322944643#3 322944643#5 38740544" />
    </vehicle>
    <vehicle depart="22.15" departLane="best" id="veh82" type="veh_passenger">
        <route edges="436647799 172868748#1 172868748#2 172868748#3 436647800 -172868864#1 -172868864#0 -595630250 -318221333 -38569951 172746725 -172297063#5 -172297063#4 -172297063#3 -172297063#2 -172297063#1 28807664#0 28807664#1 28807664#2 28807664#3 28807664#4 28807664#6 392337841 16238205#0 265227055#1 325319811#0 325319811#1 325319811#2 426504424 407753018#0 407753018#1 407753018#2 231345868 229480219#0 229480219#1 427253366#1 427253366#4 427253366#7 230784087#1 230784087#3 230784087#4 231350481#0 231350481#1 231350481#2 231350481#3 231350481#4 231350475#0 231350475#1 231350475#2 231350483#0 231350483#1 231350483#3 231350483#4 231350474#0 231350474#1 4567096 234731992#0 321139490#0 4567105 8547798#0 401762565#0 401762565#1 -325044600#0 211456025 460071969 638729322#0 638729322#2 638729322#3 638729322#4 638729322#5 638729322#6 638729322#7 638729322#8 638729322#9 638729322#10 638729322#11 577924801 28725762 176499525 231281377#0 38738786 427400671#6 27030066#0 27030066#1 27030066#2 27030066#3 27030066#4 27030066#5 27030066#6 27030066#7 27030066#8 27030066#9 211061213#0 211061213#1 211061210#0 211061210#1-AddedOnRampEdge 211061210#1 246708371 211061212 -27030009" />
    </vehicle>
    <vehicle depart="22.42" departLane="best" id="veh83" type="veh_passenger">
        <route edges="-430129640 427400925#3 427400778#2 465984313#0 465984313#1 -427400818#0 -427400692 -246708361 39117774 -38738777#2 38738776#0 38738776#1 38738776#2 363528979#0 363528979#1 363528979#2 246708373 38738780 62268206 211456024 211456026#0 577924800#2 577924800#4 8578611 427243067 426927728#0 426927728#1 426927728#2 426927728#3 426927728#5 125451142#0 -427243074 -39080245#0 39080244#1 39080244#2 39080244#3" />
    </vehicle>
    <vehicle depart="23.50" departLane="best" id="veh87" type="veh_passenger">
        <route edges="426696424 426696423 426696421#0 426696421#1 426696421#2 426696410#1 426696411 230628531#0 230628531#1 230628531#2 241318602#0 241318602#1 241318602#2 241318602#3 230628520#0 230628520#1 261785599#0 261785599#1 261785599#2 261785599#3 230628521#0 230628521#1 230628521#2 230628521#3 231390618#0 231390618#1 231390618#2 231390618#3 231390618#4 577924801 28725762 176499525 231281377#0 38738786 427400671#6 27030066#0 27030066#1 27030066#2 27030066#3 27030066#4 27030066#5 27030066#6 27030066#7 27030066#8 27030066#9 211061213#0 211061213#1 211061210#0 211061210#1-AddedOnRampEdge 211061210#1 39081434#0 39081434#1 39081434#2 430119212#0 -430119210" />
    </vehicle>
    <vehicle depart="25.93" departLane="best" id="veh96" type="veh_passenger">
        <route edges="-436333197#1 -436333197#0 369907196#3 27639608#4 27639585#3 27639585#4 27639585#5 27639561#0 27639561#1 27639561#2 27644492#0 27644492#1 -27644520#5 -27644520#4 -27644520#3 -27644520#2 -27644520#1 -27644520#0 16326434#0 16326434#1 16326434#2 16326434#5 16326434#6 16326434#7 27570521#0 27570521#1 27570521#2 27570521#3 27570521#4 427018862#0 427018862#1 427018862#2 427018862#3 -255905293#1 436488790 231350474#1 4567096 234731992#0 321139490#0 4567105 8547798#0 401762565#0 401762565#1 -325044600#0 211456025 460071969 638729322#0 638729322#2 638729322#3 638729322#4 638729322#5 638729322#6 638729322#7 638729322#8 638729322#9 638729322#10 638729322#11 577924801 28725762 176499525 231281377#0 38738786 427400671#6 27030066#0 27030066#1 27030066#2 27030066#3 27030066#4 27030066#5 27030066#6 27030066#7 27030066#8 27030066#9 211061213#0 211061213#1 211061210#0 211061210#1-AddedOnRampEdge 211061210#1 39081434#0 39081434#1 39081434#2 39081434#3 39081434#4 -128519864 79669498#0 79669498#1 128511291#0 128511291#1 128511291#2 620987193#0 620987193#1 183462527#1 183462563-AddedOnRampEdge 183462563 15260367 15260367-AddedOffRampEdge 15260356 279007737 279007738#1 37916388#0 37916388#1 37916388#2 128515116 128515109#0 128515109#1 128515109#2 128515109#3 128509885 226358420#1 226358420#2 519490875" />
    </vehicle>
    <vehicle depart="27.28" departLane="best" id="veh101" type="veh_passenger">
        <route edges="430128047#0 430128047#1 132236347#3 132236347#4 -27030089#7 -27030089#6 27030106 27030002#0 27030002#1 -278992347 27029997#8 27029997#9 -545465138#2 27030139#0 27030139#1 -405489977#0 -27030148#2 -27030148#1 -27030148#0 38738777#0 38738777#1 38738776#0 38738776#1 38738776#2 363528979#0 363528979#1 363528979#2 246708373 38738780 62268206 211456024 211456026#0 577924800#2 14406394#0 14406394#1 14406394#3 422062695#0 422062695#1 231715377 231715374#0 231715374#0-AddedOffRampEdge 231715374#1 231715370 231715375#0 231715375#1 38631708 72767342-AddedOnRampEdge 72767342 38631710 72614035#0 231713630#1 425925610 -425925652 425925650 38631699#1 -425934225" />
    </vehicle>
    <vehicle depart="28.36" departLane="best" id="veh105" type="veh_passenger">
        <route edges="-448209066 -448209062 -448213346 427400783#0 427400783#1 -427400692 -246708361 39117774 -38738777#2 38738776#0 38738776#1 38738776#2 363528979#0 363528979#1 363528979#2 246708373 427400671#3 427400671#4 430115790" />
    </vehicle>
    <vehicle depart="29.72" departLane="best" id="veh110" type="veh_passenger">
        <route edges="679367236 436333206#1 436333206#3 679174597 -27639585#5 -27639585#4 -27639585#3 -27639585#2 -27639585#1 -27639585#0 185783795#12 185783795#13 369907195#1 369907195#2 369907195#3 369907195#4 369907195#6 369907195#7 369907195#8 255792502#0 401011169#2 401011169#3 439631884 369907203#0 369907203#2 369907203#3 369907203#5" />
    </vehicle>
    <vehicle depart="37.28" departLane="best" id="veh138" type="veh_passenger">
        <route edges="-37538137#0 293597698#3 293597698#4 194545764 587922690#0 587922690#1 587922690#2 587922690#4 35472693#0 -237455929 -237455928#1 -237455928#0 -172744182#1 -172744182#0 185627527#0 185627527#1 185627527#2 185627517#0 185627517#1 185627524#0 185627524#1 339106276 -28712212#1 -426505728#3 -426505728#2 -426505728#1 426505741#1 426505740#1 426505695#2 229480632#0 229480632#1 284347439#3 284347439#4 450878336 450815130#1 284347441#0 284347441#1-AddedOnRampEdge 284347441#1 284347441#2 284347441#3 426511384#0 426511384#1 424222641 424211551#9 330594204" />
    </vehicle>
    <vehicle depart="38.36" departLane="best" id="veh142" type="veh_passenger">
        <route edges="231404788#2 231404792#0 247061290#0 172297055 196799730#0 196799730#1 196799730#2 196799730#3 196799730#4 196799730#5 196799730#6 8578537#0 129439666 426510831 8578563#0 8578563#1 8090812 578287066#0 578287066#2 196799733#0 196799733#1 230628541#0 230628541#1 230628541#2 230628541#3 230628541#4 230628541#5 230628537#0 230628537#1 230628537#2 230628537#3 230628537#4 230628537#5 230628537#6 230628537#7 282974683#0 282974683#1 230628536#0 230628536#1 230628536#2 230628536#3 230628536#4 230628536#5 230628536#6 230628531#0 230628531#1 230628531#2 241318602#0 241318602#1 241318602#2 241318602#3 230628520#0 230628520#1 261785599#0 261785599#1 261785599#2 261785599#3 230628521#0 230628521#1 230628521#2 230628521#3 231390618#0 231390618#1 231390618#2 231390618#3 231390618#4 577924801 28725762 176499525 231281377#0 38738786 427400671#6 27030066#0 27030066#1 27030066#2 27030066#3 493709855#0 493709855#1" />
    </vehicle>
    <vehicle depart="39.71" departLane="best" id="veh147" type="veh_passenger">
        <route edges="39120544#0 -39120549#1 -133333369#3 -133333369#2 -133333369#1 -237455937#4 -237455937#3 -237455937#2 -237455937#1 241249698#5 241249698#6 241249698#7 241249698#8 183752945#0 183752945#1 39082314#0 39082314#1 39082314#2 39082314#4 39082304#0 39082304#1 465984315#2 465984315#3 -56394532#2 -56394532#1 -56394532#0 -211455038 39082306#0 39082306#1 211455034 211455035#0 211455035#1 211455035#2 211455035#3 -38738764#4 -38738764#3 -38738764#2 -430124251 330594187#1" />
    </vehicle>
    <vehicle depart="39.98" departLane="best" id="veh148" type="veh_passenger">
        <route edges="186496569#0 424211021#2 424211021#3 424211021#4 -211556987#7 16257589#0 16257589#1 16257589#2 16257589#3 425923715#0 425923715#1 425923715#2 425923716 236120861#0 236120861#1 236120862#0 236120862#1 236120862#2 425929169#0 425929169#1 425929169#2 425929169#3 425925638#0 425925638#2 72614013#1 72614013#2 72767330 38631707 196799741 231715365 231715376#0 231715376#1 422062695#0 422062695#1 27611266 498338005 241249712#1 38738786 427400671#6 27030066#0 27030066#1 27030066#2 27030066#3 27030066#4 27030066#5 27030066#6 27030066#7 -244936642 -38738603#2 -38738603#1 -38738603#0 -211455035#4 -211455035#3 -211455035#2 -211455035#1 -211455035#0 211455040 244936702#0 244936702#1 244936702#2 211455038 56394532#0 56394532#1 56394532#2 39082313#0 39082313#1 39082313#2 39082313#3 427400926#2 39082302#1 39082331#0 39082331#1 39082331#3 39082331#4 39082331#5 39082331#6 39082331#7 39082331#8 39082331#9 39082331#10 39082331#11 39082331#12 39082331#13 39082331#14 56394527 241249700#0 241249700#1 645595745 645595744#0 -427400858 -131628119#1" />
    </vehicle>
    <vehicle depart="40.79" departLane="best" id="veh151" type="veh_passenger">