<routes xmlns:xsi="http://www.w3.org/2001/XMLSchema-instance" xsi:noNamespaceSchemaLocation="http://sumo.dlr.de/xsd/routes_file.xsd">
    <vType id="moto_motorcycle" vClass="motorcycle" />
    <vehicle depart="1.27" departLane="best" id="moto3" type="moto_motorcycle">
        <route edges="-424630814#2 424630860#4 424630860#5 424630860#6 424630860#7 424630860#8 424630860#9 424630823 279753892#0 279753892#1 424630821 424630807#1 424630819#6 424630809#0 424630809#1" />
    </vehicle>
    <vehicle depart="3.40" departLane="best" id="moto8" type="moto_motorcycle">
        <route edges="-172308673#3 -172308673#2 -172308673#1 -172308673#0 255792503#0 255792503#1 195270960#0 195270960#2 39051476#1 556750747#0 556750747#1 556750747#3 556750747#4 556750747#5 556750747#6" />
    </vehicle>
    <vehicle depart="3.82" departLane="best" id="moto9" type="moto_motorcycle">
        <route edges="229480982#4 229480983#1 27639608#0 27639608#1 27639608#2 27639608#3 27639608#4 27639585#3 -27639586#2 27639594 27644477#2" />
    </vehicle>
    <vehicle depart="4.25" departLane="best" id="moto10" type="moto_motorcycle">
        <route edges="231404792#0 247061290#0 426505707#1 426505707#2 426505710 426505734#1 426505734#2 426505734#3 426505734#4 426505734#5 426505734#6 426505734#7 450878338#1 284347441#0 284347441#1-AddedOnRampEdge 284347441#1 359790125#3 359790125#4 359790125#5 427253372 427253374#0 427253374#1 427253359#2" />
    </vehicle>
    <vehicle depart="4.67" departLane="best" id="moto11" type="moto_motorcycle">
        <route edges="8579908 277794712#1 133124801#0 133124801#1 454680853 211556995#0 211556995#1 211556988 454576378 196171809 524256404-AddedOnRampEdge 524256404 435973651#1 435973651#1-AddedOffRampEdge" />
    </vehicle>
    <vehicle depart="7.64" departLane="best" id="moto18" type="moto_motorcycle">
        <route edges="323053803 221635256#2 626721430#1 626721430#2 626721430#3 556750747#5 556750747#6 556750747#7 134462812 280118522#1 280118522#2 280118522#3 420384665 632976630#0 428102023#0 428102023#1 27639629#0 27639629#1" />
    </vehicle>
    <vehicle depart="8.07" departLane="best" id="moto19" type="moto_motorcycle">
        <route edges="39078043#1 -68280085#1 128137740#4 184769986 184769988 171848080 448210016 171847941#0 171847941#0-AddedOffRampEdge 171847941#1 171847941#2 171847964#0 171847964#1 597462036 165472953 15808057#0" />
    </vehicle>
    <vehicle depart="8.49" departLane="best" id="moto20" type="moto_motorcycle">
        <route edges="124962725#1 661786911 661786918 124962723#0 124962832 373576672 269678077#5 269678077#6 124962720 661786907 661786906#0 661786906#1 661786906#2 661786906#3 661786906#4 124962724#0 124962724#1 255845158#0 255845158#1 231355576#1 231350478#0" />
    </vehicle>
    <vehicle depart="8.91" departLane="best" id="moto21" type="moto_motorcycle">
        <route edges="211556987#6 16257589#0 16257589#1 16257589#2 16257589#3 16257589#4 16257589#5 72767357#0 72767357#1 72767353#0 72767353#1 230628519#0 230628519#1 424211549#4 424211549#5 424211549#6 424211549#7 424211549#8 -369344314#1 -369344314#0 369467064#2 369467063#0" />
    </vehicle>
    <vehicle depart="9.76" departLane="best" id="moto23" type="moto_motorcycle">
        <route edges="230395575#2 237048439#0 237048439#1 75416428 37916346#1 252792311 51835049#0 51835049#1 51835049#2 51835049#3 582543456 37916452#0 37916452#1 37916452#2 37916452#3 447007234#0 447007234#1 447007234#2 447007234#3 429353540#0 272898748 272898745 128508563#0 128508563#1 128508563#2 128508563#3 128508563#4 128508563#5 38709149#0 -467061961" />
    </vehicle>
    <vehicle depart="13.58" departLane="best" id="moto32" type="moto_motorcycle">
        <route edges="-430127811 231281375#3 231281375#4 241249712#1 38738786 -427400671#5 430115790" />
    </vehicle>
    <vehicle depart="14.01" departLane="best" id="moto33" type="moto_motorcycle">
        <route edges="133333369#0 -237455937#4 -237455937#3 -237455937#2 -237455937#1 241249698#5 241249698#6 241249698#7 241249698#8 183752945#0 183752945#1 39082314#0 39082314#1 39082314#2 39082314#4 39082304#0 39082304#1 465984315#2" />
    </vehicle>
    <vehicle depart="14.43" departLane="best" id="moto34" type="moto_motorcycle">
        <route edges="39046004#0 39046005#1 39046005#2 39046005#4 39046005#5" />
    </vehicle>
    <vehicle depart="14.86" departLane="best" id="moto35" type="moto_motorcycle">
        <route edges="27668372#0 27668372#1 425942461 425942463 425942460 255818924#11 255818924#13 255818924#14 255818924#15 255818924#16 183853709 183853700#0 183853700#1 423267761 231341014#1 231341014#2 261785599#0 261785599#1" />
    </vehicle>
    <vehicle depart="16.13" departLane="best" id="moto38" type="moto_motorcycle">
        <route edges="59515637#0 59515637#1 59515637#2 39048508#0 39048504#1 39048488#2 39048488#3 39048489#1 39048489#2 -39048494#3 -39048494#2 -39048494#1 -39048494#0 39049679#0 39049679#1 28807588#6 28807588#7 244923485#5 172297072 172297073 221635258#0 221635258#1 221635258#2 221635258#3 265227053#7" />
    </vehicle>
    <vehicle depart="20.38" departLane="best" id="moto48" type="moto_motorcycle">
        <route edges="-430128408 130808658#2 130808658#3 130808660#0 130808660#1 130808660#2 130808660#3 37916629#3 128511294#2 128511294#3 128511294#4 183462529 37916618 371375600#0 371375600#1 128515111 620987193#0 620987193#1 183462527#1 183462563-AddedOnRampEdge 183462563 15260367 15260367-AddedOffRampEdge 15260361 457093355#0 457093355#2 457093355#3 519490880 14517187#0 14517187#1 128523193 519486386#0 519486386#1 272898745 -251629009#3 -251629009#1" />
    </vehicle>
    <vehicle depart="22.07" departLane="best" id="moto52" type="moto_motorcycle">
        <route edges="430128415#0 -430128411 142906166#2 130808669 130808672 37916659 130808659 130808673 237587397#4 237587397#5 237587397#6 237587397#7 245893027" />
    </vehicle>
    <vehicle depart="25.89" departLane="best" id="moto61" type="moto_motorcycle">
        <route edges="424211549#1 424211549#2 424211755#4 230628517#3 230628517#4 230628517#6 230628517#7 230628534#1 230628534#2 196799732 230783567#1 230783567#2 230783567#3 186496572#0 186496572#1 186496572#2 186496572#3 186496572#4 407769038#2 9931243 262851659 8148347 513802091 262851657#0 262851657#1 262851657#2 262851657#3 262851657#4 229480221#0 229480221#1 426510606" />
    </vehicle>
    <vehicle depart="26.32" departLane="best" id="moto62" type="moto_motorcycle">
        <route edges="132236347#2 132236347#3 547177363#1 547177363#3 547177363#4 547305684#0 547305684#2 547305684#3 39082314#0 39082314#1 278992351#4 377399183 377396455#1" />
    </vehicle>
    <vehicle depart="26.74" departLane="best" id="moto63" type="moto_motorcycle">
        <route edges="-27030032#0 310454391 310454390 39081853 447117757#6 447117757#7 132236345#0 132236345#1 132236345#2 672784703#2 672784703#3 672784703#4 672784703#5 251712234#0 251712234#1 27029988 278992352#0 278992352#1 278992352#2 278992352#3 27029992#0 27029992#1 -73532302#5 -73532302#4 -73532302#3 -73532302#2 -447117761 -27029998 -278992352#3" />
    </vehicle>
    <vehicle depart="29.29" departLane="best" id="moto69" type="moto_motorcycle">
        <route edges="-37909827#3 37909832 423640299#6 244923480 184765909#1 184765909#2 184765909#3 184765910 244923483 437233646 128894334 578324316-AddedOnRampEdge 578324316 513802091 262851657#0 39117190 454745478#1 454745478#2 426506680#0 426506680#1 426506683#0 426506683#1 426506683#2 426506686#1 136048532 454749665#0 454749665#1 136048535" />
    </vehicle>
    <vehicle depart="30.14" departLane="best" id="moto71" type="moto_motorcycle">
        <route edges="211061213#0 430114798 73532302#0 430114470 -211455037#0 60252054 -244936600 -244936602 -211455035#4 -211455035#3 -211455035#2 -211455035#1 -211455035#0 211455040 244936702#0 244936702#1 244936702#2 211455038 39117746#0 39117746#8 39117744#4 39117744#5" />
    </vehicle>
    <vehicle depart="31.41" departLane="best" id="moto74" type="moto_motorcycle">
        <route edges="56394526#2 465984316 465984317#0 465984317#1 -465984316 -56394526#2 -56394526#0 39082304#0 39082304#1 465984315#2 465984315#3 -56394532#2 -56394532#1 -56394532#0 39117746#0 39117746#8 39117744#4 39117744#5 39117744#6 -217479452#1 -217479452#0 39117774 38738777#4 38738777#5 38738777#6" />
    </vehicle>
    <vehicle depart="32.69" departLane="best" id="moto77" type="moto_motorcycle">
        <route edges="587922690#20 587922690#21 587922690#22 16765621#0 8578850#0 8578850#1 8578850#2 171849294 426505734#0 426505706 426505711#1 426505705#1 426505715#0 426505715#1 426505717#0 426505717#1 426505709 426505718#0 426505718#1 426505718#2 426505718#3 426505724#1" />
    </vehicle>
    <vehicle depart="33.11" departLane="best" id="moto78" type="moto_motorcycle">
        <route edges="39014083 39014084#0 38570166#1 38570166#2 192583209#1 192583208#1 192583208#2 39048510#0 39048510#2 450506570 192583210#4 192583210#5 28807588#0 28807588#1 -172747396#1" />
    </vehicle>
    <vehicle depart="37.36" departLane="best" id="moto88" type="moto_motorcycle">
        <route edges="-430128411 142906166#2 142906166#3 128511294#2 128511294#3 128511294#4 183462529 37916618 371375600#0 371375600#1 128515111 620987193#0 620987193#1 435973648 435973649#1 435973649#2-AddedOnRampEdge 435973649#2 435973649#2-AddedOffRampEdge 128515120 -230398377 34436961 37916485#1 37916485#2 34436962 -128508551#1" />
    </vehicle>
    <vehicle depart="39.05" departLane="best" id="moto92" type="moto_motorcycle">
        <route edges="426607367 27644488#0 27644488#1 359790117#0 646564638 27644485#0 423976020#1 423976020#2 423976021#7 423976021#8 423976021#9 230784030#0 230784030#1 426511342 359790096#1 359790096#2 -359790125#5 -359790125#4 -359790125#3 -359790125#2 490216501 517698789" />
    </vehicle>
    <vehicle depart="41.18" departLane="best" id="moto97" type="moto_motorcycle">
        <route edges="171847607#1 171847607#2 171847607#3 448210019#0 448210019#2 448210019#3 448210021#0 448210021#1 38585125#0 38360276#4" />
    </vehicle>
    <vehicle depart="47.54" departLane="best" id="moto112" type="moto_motorcycle">
        <route edges="277478974#0 277478974#1 -277478968#3 -277478968#2 27587529#1 27587529#2 27587529#3 27587529#4 27587529#5 369907197#0 369907197#1 369907197#2 369907197#3 27639585#0 27639585#1 27639585#2 27639585#3 27639585#4 27639585#5 27639561#0 27639561#1 27639561#2 27644492#0 27639588#0 27639588#1 27639588#2 185783795#3 185783795#4 185783795#5" />
    </vehicle>
    <vehicle depart="47.97" departLane="best" id="moto113" type="moto_motorcycle">
        <route edges="-427243046 638729322#9 638729322#10 638729322#11 577924801 28725762 176499525 241249712#8 241249712#10 427400766#1 427400766#3 427400867#2 477789804#0 38738779#0 38738779#1 38738774#3 38738764#0" />
    </vehicle>
    <vehicle depart="48.39" departLane="best" id="moto114" type="moto_motorcycle">
        <route edges="39046429 172868947#1 595630254 615324080#0 615324080#2 239019889#0 239019889#1 244739220 212554514#0 212554514#1 212554514#2 261605996 39045999 438468040 39046005#2 39046000" />
    </vehicle>
    <vehicle depart="48.82" departLane="best" id="moto115" type="moto_motorcycle">
        <route edges="407757111#4 407757111#5 -27667447#1 -27667447#0 255818924#4 8578872#0 8578872#1 426603437#8" />
    </vehicle>
    <vehicle depart="49.67" departLane="best" id="moto117" type="moto_motorcycle">
        <route edges="427253372 24587518#0 24587518#1 427253366#4 427253366#7 230784087#1 230784087#3 230784087#4 231350481#0 231350481#1 231350481#2 231350481#3 231350451 231350454 231350473#0 231350473#1 14520867 231350478#2 426605959#1 423976021#0 423976021#1 423976021#2 423976021#3 423976021#4 205998238" />
    </vehicle>
    <vehicle depart="50.52" departLane="best" id="moto119" type="moto_motorcycle">
        <route edges="-255818924#5 -255818924#4 -255818924#3 -255818924#2 -255818924#1 -255818924#0 324839764 517676964 462829680 337865806 337865808#0 337865808#1 337865808#2 337865808#3 -276664815#1 -439768949 -521396097 -239019901#2 27660286 427018779#0 427018779#1 427018779#2 427018775#3 188303695#1" />
    </vehicle>
    <vehicle depart="52.64" departLane="best" id="moto124" type="moto_motorcycle">
        <route edges="127683181 39048448 76695850#1 76695850#2 76695850#3 39049663#1 39049665#0 39049665#1 438224045 16257975#2 39053433#0 39053435 39053431#1 39053431#2 39053431#3 -16238438#0 39053412#0 39053412#1 39053412#2 39053421#5 39053407#1 39053409 39077816#2 187039613#0 -39053414" />
    </vehicle>
    <vehicle depart="53.49" departLane="best" id="moto126" type="moto_motorcycle">
        <route edges="124962748#3 325015629#1 325015629#2 27333554#1 27333554#2 325320427#4 325320427#5 325320427#6 27639563 661786905 661786913 661786912 661786919#0 661786919#1 661786919#2 661786919#3 661786919#4 -27644520#1 -27644520#0 -370514753#1 -370514753#0 -230784086#1 -230784086#0 230784085#0 230784085#1 230784085#3 231350452#1 231350480#1 231350480#2 428102023#0 428102023#1 27639629#0" />
    </vehicle>
    <vehicle depart="54.34" departLane="best" id="moto128" type="moto_motorcycle">
        <route edges="430128040 430128047#1 132236347#3 547177363#1 547177363#3 547177363#4 547305684#0 547305684#2 547305684#3 39082314#0 39082314#1 39082314#2 39082314#4 39082304#0 39082304#1 39082313#2 39082313#3 39082313#4 465984311#1 465984311#2 -244936681" />
    </vehicle>
    <vehicle depart="55.19" departLane="best" id="moto130" type="moto_motorcycle">
        <route edges="39081849#2 39081849#3 39081849#4 39081849#5 39081849#6 131655868#0 131655868#1 622455877 246307536#0 27030125#1 -27030123#0 27030026#0 -27030129#1 -27030129#0 39081848 -547305685#3" />
    </vehicle>
    <vehicle depart="57.73" departLane="best" id="moto136" type="moto_motorcycle">
        <route edges="-34439046#0 -448210020 -448210021#1 -448210021#0 -448210019#3 -448210019#2 -448210019#0 76695773#0 76695773#1 76695773#2 76695773#3 76695773#4 171847502#0 171847502#0-AddedOffRampEdge 171847502#1 171847502#2 39056485 231404788#2 231404788#3 167131057#0 167131057#1 167131058#0 167131058#1 16765529#0 16765529#1 16238438#0" />
    </vehicle>
    <vehicle depart="58.58" departLane="best" id="moto138" type="moto_motorcycle">
        <route edges="39046616#0 39046616#1 28807592#1 28807592#3 28807592#4 28807592#5 28807592#6 491638977#0 491638977#1 491638977#2 491638977#3 491638975 262460754#3 556750747#0 556750747#1 556750747#3 556750747#4" />
    </vehicle>
    <vehicle depart="59.01" departLane="best" id="moto139" type="moto_motorcycle">
        <route edges="312280064#0 -425869965 -134364076#0 251629012 -133125062#0 -454570241 179551763 470252930#1 470252930#2 470252930#3 48661200#1 425850165#1 425850171#0 425850171#1 369630800 46892381#0 46892381#1 46892381#2 16975887#0 16975887#1 16975887#2 16975887#3 16975887#4 454557953 454557952 16975933 72921505 524255618#0" />
    </vehicle>
    <vehicle depart="59.43" departLane="best" id="moto140" type="moto_motorcycle">
        <route edges="39081434#2 39081434#3 39081434#4 39081434#5 246708372#0 246708372#1 246708372#2 -211060853 462992753 16976549 565942870 8579169#0 8579169#1 8579169#2 424630842 424630814#1" />
    </vehicle>
    <vehicle depart="60.70" departLane="best" id="moto143" type="moto_motorcycle">
        <route edges="211455038 56394532#0 56394532#1 56394532#2 39082313#0 39082313#1 39082313#2 39082313#3 39082313#4 465984311#1 465984311#2 244936593#0 -56394188 56394187 151515563#0 151515563#1 151515563#2" />
    </vehicle>
    <vehicle depart="61.13" departLane="best" id="moto144" type="moto_motorcycle">
        <route edges="-430129437#1 128511287#1 128511287#3 37916640#1 37916640#2 37916640#3 371375600#1 128515111 620987193#0 230597451#2 128515110#1" />
    </vehicle>
    <vehicle depart="62.40" departLane="best" id="moto147" type="moto_motorcycle">
        <route edges="490216505 424217266#5 284347441#3 426511384#0 426511384#1 -230784037 -230784034 -230784029#2 -230784029#1 -230784029#0 -230784024 -230784038#1 -230784038#0 -424211533 424211549#0 424211549#1 424211549#2 424211549#3" />
    </vehicle>
    <vehicle depart="63.68" departLane="best" id="moto150" type="moto_motorcycle">
        <route edges="196799730#3 237612911#1 237612911#2 597462020#1 597462020#2 238318430#1 238318430#2 39056431 238318429#1-AddedOnRampEdge 238318429#1 -469728272 -39056479#1 -39056476#3 -39056476#2 -39056476#1 -39056476#0 184855988#4 184855988#1 -39056475#3 -39056475#2 -39056475#1 -39056475#0 171847607#2 184769989 -612083734 -39077901#0" />
    </vehicle>
    <vehicle depart="64.10" departLane="best" id="moto151" type="moto_motorcycle">
        <route edges="-53801348 -53801206#2 -53801206#1 -53801206#0 27030027#9 27029997#6 278992352#1 278992352#2 278992352#3 27029992#0 27029992#1 -73532302#5 -105411943 -27030139#5 -27030139#4 27030152#1" />
    </vehicle>
    <vehicle depart="65.37" departLane="best" id="moto154" type="moto_motorcycle">
        <route edges="-39120532#2 39120533#0 39120533#1 39120533#2 645595744#2 241249699#0 241249699#1 352366651#0 352366651#1" />
    </vehicle>
    <vehicle depart="65.80" departLane="best" id="moto155" type="moto_motorcycle">
        <route edges="310454388#0 310454388#1 133333369#0 133333369#1 133333369#2 133333369#3 133333369#4 39120539 39082324 241249698#0 -39082320#2 -39082320#1 131630958#0 131630958#1 39082343 -131628115#0" />
    </vehicle>
    <vehicle depart="66.22" departLane="best" id="moto156" type="moto_motorcycle">
        <route edges="128515109#1 128515109#2 128515109#3 128515109#4 128515109#5 37916449#0 37916449#1 429353540#0 272898748 272898745 128508563#0 128508563#1 128508563#2 128508563#3 128508563#4 128508555#0 431548669" />
    </vehicle>
    <vehicle depart="67.92" departLane="best" id="moto160" type="moto_motorcycle">
        <route edges="157188563#2 157188563#3 157188563#4 157188563#5 157188563#6 157188563#8 157188563#9 157188563#10 157188563#11 299532299 183462553 183752953 385517862 -237587387#2 -237587387#1 -237587387#0 131655875#0 131655875#1 299532297#0 299532297#1 299532297#2 299532297#3 299532297#4 27030027#5 27030027#6 53801206#0 53801206#1 53801206#2 53801348 -430118181#1 -430118181#0" />
    </vehicle>
    <vehicle depart="68.35" departLane="best" id="moto161" type="moto_motorcycle">
        <route edges="-424212159 424211905#8 424211905#9 426696435#0 230628519#7 230628519#8 230628519#9 230784033#5 205861332" />
    </vehicle>
    <vehicle depart="70.04" departLane="best" id="moto165" type="moto_motorcycle">
        <route edges="-672784703#3 -672784703#2 132236345#3 27030027#3 27030027#4 299532297#5 672784703#4 672784703#5 251712234#0 251712234#1 27029988 278992352#0 278992352#1 278992352#2 430113812#0 430113812#1 27029985 27030077#3 448213345#0 -27030152#1 -27030152#0 -211455035#4" />
    </vehicle>
    <vehicle depart="72.59" departLane="best" id="moto171" type="moto_motorcycle">
        <route edges="-430128413 131655875#1 -128511297#1 -128511297#0 53801625 237587387#2 299532298 183752954#1 183752954#2 237587397#0 237587397#1 237587397#2 237587397#4 237587397#5 237587397#6 237587397#7 245893027" />
    </vehicle>
    <vehicle depart="73.86" departLane="best" id="moto174" type="moto_motorcycle">
        <route edges="195270960#0 195270960#2 39051476#1 556750747#0 556750747#1 556750747#3 556750747#4 556750747#5 556750747#6 556750747#7 556750747#8 556750747#9 556750747#9-AddedOffRampEdge 19796852#0 19796852#1 407753019#1 407753019#2" />
    </vehicle>
    <vehicle depart="76.84" departLane="best" id="moto181" type="moto_motorcycle">
        <route edges="37916629#1 -27238962#1 142906167#2 157188563#9 157188563#10 157188563#11 299532299 183462553 183752953 385517862 -237587387#2 -237587387#1 -237587387#0 131655875#0 131655875#1 299532297#0 299532297#1 299532297#2 299532297#3 299532297#4 299532297#5 299532297#6 547177360#0 547177360#1" />
    </vehicle>
    <vehicle depart="79.38" departLane="best" id="moto187" type="moto_motorcycle">
        <route edges="426505734#4 426505734#5 426507058 426507052 229480632#0 229480632#1 423517339#0 614007812 284347438#0 284347438#1 450833652#0 450833652#1 231345864 231345866 451601406 329262587#0" />
    </vehicle>
    <vehicle depart="80.66" departLane="best" id="moto190" type="moto_motorcycle">
        <route edges="171847607#0 171847607#1 171847607#2 171847607#3 -171847845#4 -171847845#3 -171847845#2 -171847845#1 -171847845#0 231404622 231404620#0 231404620#1 231404620#2 171848165#0 171848165#1 39056445#3 597462033" />
    </vehicle>
    <vehicle depart="81.93" departLane="best" id="moto193" type="moto_motorcycle">
        <route edges="-39014080#2 -39014080#1 -39014080#0 39014089#2 39014089#3 293597698#2 35472694#0 77707877 565483610#0 -39014081#2 -39014081#1 -39014081#0 39048457#0 60685694#3 401300455#4 -39048489#3 -39048489#2 -39048489#1 59515637#0 -39048535#1 -39048535#0 39048531#2" />
    </vehicle>
    <vehicle depart="82.78" departLane="best" id="moto195" type="moto_motorcycle">
        <route edges="27029997#1 27030022 -27030023#1 -27030023#0 -27030017#1 -27030017#0 310454395#1 37916643#0 37916643#1 310454393 371375600#0 371375600#1 128515111 620987193#0 620987193#1 435973648 435973649#1 435973649#2-AddedOnRampEdge 435973649#2 435973649#2-AddedOffRampEdge 128515120 -230398377 34436961 37916485#1 37916485#2 34436962 -128508551#1 -128508551#0 37916494#0 37916494#1 37916494#2 37916494#3 37916494#4 37916494#5 37916494#6 37916494#7 128194053#0 128194053#1 128194053#2 128194053#3" />
    </vehicle>
    <vehicle depart="87.45" departLane="best" id="moto206" type="moto_motorcycle">
        <route edges="-27639647#0 -401760473#0 401760472 661786919#4 27644520#2 27644520#3 27644520#4 27644520#5 27644520#6 -211556998 -202867536" />
    </vehicle>
    <vehicle depart="89.57" departLane="best" id="moto211" type="moto_motorcycle">
        <route edges="-27030089#7 -27030089#6 27030106 27030002#0 27030002#1 -278992347 27029997#8 27029997#9 27030143#0 27030143#1 27030143#2 27030143#3 27030143#4 211455032#0 211455036 211455034 211455035#0 211455035#1 211455035#2 -123103598#1 -123103598#0 -217479458#0 38738605#4 38738605#5" />
    </vehicle>
    <vehicle depart="90.00" departLane="best" id="moto212" type="moto_motorcycle">
        <route edges="646564634 14520818#0 14520818#1 646564636 27644484#0 27644484#1 14520855 231350473#0 231350455#2 27639666" />
    </vehicle>
    <vehicle depart="95.09" departLane="best" id="moto224" type="moto_motorcycle">
        <route edges="450833653#1 426504423 407753019#0 407753019#1 27639579#5 556750747#9 556750747#9-AddedOffRampEdge 556750747#10 556750747#11 451601407#1 329262588 325319810#0 325319810#1 325319810#2 325319810#3 427253366#1 427253366#4 427253366#7 231350466#0 231350466#1 231350466#2 426511347 359790096#1 436325259 27639670 27639671 436325256#0 -436325258" />
    </vehicle>
    <vehicle depart="95.51" departLane="best" id="moto225" type="moto_motorcycle">
        <route edges="-430126494#1 -27030017#3 -211061207#2 -211061207#1 -211061207#0 -211061214 39081406#0 237212803#1 237212803#2 237212803#3 -211061213#1 -211061213#0 -211455037#3 -211455037#2 -211455037#1 -211455037#0 60252054 -244936600 -244936602 -211455035#4 -211455035#3 -123103598#1 244936614#5 -38738605#1 27030148#1 27030148#2" />
    </vehicle>
    <vehicle depart="96.79" departLane="best" id="moto228" type="moto_motorcycle">
        <route edges="141294961#0 141294961#2 141294961#3 141294961#4 424630824 424630837#1 212723117#3 235497116 128519863#0 128519863#1 235497117#0 235497117#1 235497118 565903327#0 430127947" />
    </vehicle>
    <vehicle depart="100.18" departLane="best" id="moto236" type="moto_motorcycle">
        <route edges="8579426 246708372#1 244936678 211060857#1-AddedOnRampEdge 211060857#1 -211060895 -128519864 79669498#0 79669498#1 128511291#0 128511291#1 128511291#2 620987193#0 620987193#1 229739161#0 229739161#0-AddedOffRampEdge 229739161#1 212723116 168667916 278920581 241926086 565519143 72921505" />
    </vehicle>
    <vehicle depart="103.15" departLane="best" id="moto243" type="moto_motorcycle">
        <route edges="-430119365 -27030089#0 -27030031#5 -27030031#4 -27030031#3 132236345#6 132236345#7 131655873#0 131655873#1 131655866 237587397#1 237587397#2 237587397#4 237587397#5 237587397#6 237587397#7 245893027" />
    </vehicle>
    <vehicle depart="103.58" departLane="best" id="moto244" type="moto_motorcycle">
        <route edges="-448213346 -448209061 -427400885#0 -427400772 39117758#0 62263982#0 62263982#1 540197057#0 540197057#1 540197057#2 38738789#0 248091957 231284704#1 231284704#2 231284704#3 246848876#0 246848876#1 246848876#2 246848876#3 39117764#0" />
    </vehicle>
    <vehicle depart="104.85" departLane="best" id="moto247" type="moto_motorcycle">
        <route edges="425942439#0 425942439#1 426927738#1 426927738#2 425942451#1 425942451#2 426927746 -427243088#3 -427243088#2" />
    </vehicle>
    <vehicle depart="105.70" departLane="best" id="moto249" type="moto_motorcycle">
        <route edges="-547177360#0 547177363#0 547177363#1 547177363#3 547177363#4 547305684#0 547305684#2 547305684#3 39082314#0 39082314#1 39082314#2 39082314#4 39082304#0 39082304#1 39082313#2 -244936694 427400778#1" />
    </vehicle>
    <vehicle depart="106.98" departLane="best" id="moto252" type="moto_motorcycle">
        <route edges="28807488#0 28807488#2 626721428 221635256#3 338991640#0 627182616#0 627182616#1 627182616#3 627182616#4 627182616#5 627182616#6 627182616#7 -172297063#3 -172297063#2 39048494#0 39048494#1 39048494#2 39048494#3 -39048489#2 172746245 450506569" />
    </vehicle>
    <vehicle depart="108.25" departLane="best" id="moto255" type="moto_motorcycle">
        <route edges="427018761#5 27660281 231350479#3 27639565 436488785#0 436488785#2 27639567 428102024#1 428102022#1 27639638 418365025#0 418365025#1 418365012 -370514753#0 370514752#0 370514752#1 370514752#2 370514752#3" />
    </vehicle>
    <vehicle depart="110.37" departLane="best" id="moto260" type="moto_motorcycle">
        <route edges="425923715#0 -37909859#2 -37909859#1 -37909859#0 38630650#1 38630650#2 38630650#3 38630650#4 471622247 471622249 16257561#0 16257561#1 423987650#0 423987650#1 230628517#0 230628517#1 230628517#2 230628517#3 230628517#4 230628517#6 230628517#7 230628534#1 230628534#2 196799732 230783567#1 230783567#2 230783567#3 186496572#0 186496572#1 186496572#2 186496572#3 186496572#4 255838497#3 255838497#4" />
    </vehicle>
    <vehicle depart="114.62" departLane="best" id="moto270" type="moto_motorcycle">
        <route edges="425838713 321139486 425838710 48802842#1 48802846 -454670894 38508516#0 38508516#1 38508516#2 425849974 425846511#0 425846511#1 425849973 8579093#0 8579093#1 234827311#1 234827311#2 252274190 46927935#0 46927935#1 46892577#0 46927933#0 46927933#1 134365461#0 22999960#0 22999960#1" />
    </vehicle>
    <vehicle depart="116.74" departLane="best" id="moto275" type="moto_motorcycle">
        <route edges="230784087#4 -407754202 79172231 231350466#1 231350466#2 426511347 359790096#1 359790096#2 427253372 427253374#0 427253374#1 427253374#2 172297666#0 172297666#1 172297666#2 -426507056" />
    </vehicle>
    <vehicle depart="118.01" departLane="best" id="moto278" type="moto_motorcycle">
        <route edges="27474563#1 27474563#2 27733787#1 27733787#2 27733787#3 27733787#4 27733787#5 325015629#2 325015629#3 239019906" />
    </vehicle>
    <vehicle depart="121.41" departLane="best" id="moto286" type="moto_motorcycle">
        <route edges="430118179 430118181#1 27029997#5 -27030027#9 -27030027#6 -27030027#5 299532297#5 -672784703#3 -672784703#2 132236345#3" />
    </vehicle>
    <vehicle depart="123.96" departLane="best" id="moto292" type="moto_motorcycle">
        <route edges="39053416#0 39053416#1 39053416#2 39053416#3 39053416#4 39053407#0 -39053421#5 -39053421#3 -229082106 231139756 -229082103 -78122419 -78171837#1 -78171837#0 -438225725" />
    </vehicle>
    <vehicle depart="126.08" departLane="best" id="moto297" type="moto_motorcycle">
        <route edges="-39051473#0 -27639581#0 312295511#1 439630283 439635263 262460754#0 28807598#0 338991640#3 439894871 439894872 312295510#0 312295510#1 312295510#2" />
    </vehicle>
    <vehicle depart="129.47" departLane="best" id="moto305" type="moto_motorcycle">
        <route edges="-37916375#1 -37916375#0 444667679 446730420 181593980#0 181593980#1 252790571#2 252790571#3 37916411#0 37916411#1 37916375#2 -37916388#0 183462549 674506709#0 674506709#2 128519867#0 128519867#1 128519866 128519865 25619255#1 425691401#0 425691401#1 425691418#0 425691443 425691444#0 425691444#1 425691408 237455906 426247930#0 426247930#1 324839763 568491295 262851665#0 262851665#1 223479042#0 223479042#1 223479041#0 223479041#1 8103470#0 46892580 8103471#0 8103471#1 8103465#0 8103465#1" />
    </vehicle>
    <vehicle depart="130.32" departLane="best" id="moto307" type="moto_motorcycle">
        <route edges="-244936659 -198727279#4 -198727279#3 27030066#9 211061213#0 430114798 73532302#0 73532302#1 73532302#2 73532302#3 73532302#4 73532302#5 73532302#6 545465138#0 545465138#1 545465138#2 -27029997#9 -27029997#8 -27029997#7" />
    </vehicle>
    <vehicle depart="131.60" departLane="best" id="moto310" type="moto_motorcycle">
        <route edges="153916350 153916349 153916351 231281388#0 231281388#2 196799738#0 425927089 428111149#0 428111149#1 16652239 425927090 197054866#2 196799729#0 196799729#1 72916497 456287381 34431215 621526225 72916473#0 72916473#1 425934934#0 425934934#1 425934941 46892969#1 46892969#2 46892969#3 46892969#4 46892969#5 -278916129#2 -278916129#1 199121003 62265344#0 62265344#1 38630156#1 679196742#0 679196742#1 679196742#2 191510470#0 191510470#1" />
    </vehicle>
    <vehicle depart="132.87" departLane="best" id="moto313" type="moto_motorcycle">
        <route edges="-27030089#3 -27030089#2 -27030089#1 -27030089#0 -27030031#5 430119362" />
    </vehicle>