<routes xmlns:xsi="http://www.w3.org/2001/XMLSchema-instance" xsi:noNamespaceSchemaLocation="http://sumo.dlr.de/xsd/routes_file.xsd">
    <vType id="truck_truck" vClass="truck">
    </vType>
    <trip depart="0.59" departLane="best" from="-638729328#0" id="truck1" to="-53826080#0" type="truck_truck" />
    <trip depart="1.78" departLane="best" from="476994770" id="truck3" to="-27644487#2" type="truck_truck" />
    <trip depart="8.91" departLane="best" from="426696421#4" id="truck15" to="424222641" type="truck_truck" />
    <trip depart="11.89" departLane="best" from="-436646700" id="truck20" to="14519876#1" type="truck_truck" />
    <trip depart="26.74" departLane="best" from="-27030008#1" id="truck45" to="229480983#4" type="truck_truck" />
    <trip depart="27.93" departLane="best" from="72767342-AddedOnRampEdge" id="truck47" to="448209066" type="truck_truck" />
    <trip depart="30.90" departLane="best" from="231350482#3" id="truck52" to="628293209#0" type="truck_truck" />
    <trip depart="37.44" departLane="best" from="454680854#1" id="truck63" to="597462023" type="truck_truck" />
    <trip depart="40.41" departLane="best" from="-560269842#1" id="truck68" to="454576378" type="truck_truck" />
    <trip depart="43.38" departLane="best" from="230629147#1" id="truck73" to="27639632#0" type="truck_truck" />
    <trip depart="45.76" departLane="best" from="-27030143#2" id="truck77" to="38585129#1" type="truck_truck" />
    <trip depart="49.33" departLane="best" from="237169411" id="truck83" to="426927754#1" type="truck_truck" />
    <trip depart="52.89" departLane="best" from="19797659#0" id="truck89" to="184013932#0" type="truck_truck" />
    <trip depart="54.68" departLane="best" from="229480219#0" id="truck92" to="133333367#4" type="truck_truck" />
    <trip depart="58.84" departLane="best" from="239019932#1" id="truck99" to="-472258016" type="truck_truck" />
    <trip depart="63.59" departLane="best" from="71958447#1" id="truck107" to="355326291" type="truck_truck" />
    <trip depart="65.97" departLane="best" from="-39081888#0" id="truck111" to="661786914#2" type="truck_truck" />
    <trip depart="66.56" departLane="best" from="-27639632#2" id="truck112" to="-427400867#2" type="truck_truck" />
    <trip depart="69.53" departLane="best" from="221635258#2" id="truck117" to="359790125#1" type="truck_truck" />
    <trip depart="70.13" departLane="best" from="265227053#13" id="truck118" to="576954816#2" type="truck_truck" />
    <trip depart="70.72" departLane="best" from="-430126368#1" id="truck119" to="423497710#0" type="truck_truck" />
    <trip depart="71.32" departLane="best" from="-450680119" id="truck120" to="230628805#5" type="truck_truck" />
    <trip depart="74.29" departLane="best" from="-27586532#1" id="truck125" to="-471659281" type="truck_truck" />
    <trip depart="74.88" departLane="best" from="-560269842#1" id="truck126" to="572095530#0" type="truck_truck" />
    <trip depart="75.48" departLane="best" from="457093355#0" id="truck127" to="465895358" type="truck_truck" />
    <trip depart="76.67" departLane="best" from="428102023#1" id="truck129" to="401300455#3" type="truck_truck" />
    <trip depart="77.85" departLane="best" from="37916499" id="truck131" to="-131628119#0" type="truck_truck" />
    <trip depart="79.04" departLane="best" from="38508531" id="truck133" to="578707887#2" type="truck_truck" />
    <trip depart="79.64" departLane="best" from="-39048508#3" id="truck134" to="-37916531#1" type="truck_truck" />
    <trip depart="80.23" departLane="best" from="-374915865" id="truck135" to="301151223" type="truck_truck" />
    <trip depart="80.83" departLane="best" from="-612083734" id="truck136" to="37808165#2" type="truck_truck" />
    <trip depart="86.17" departLane="best" from="230398376" id="truck145" to="-131655871" type="truck_truck" />
    <trip depart="86.77" departLane="best" from="-27611587" id="truck146" to="46892974#2" type="truck_truck" />
    <trip depart="87.36" departLane="best" from="498338005" id="truck147" to="280118519#8" type="truck_truck" />
    <trip depart="91.52" departLane="best" from="202867531#0" id="truck154" to="37916557#2" type="truck_truck" />
    <trip depart="93.31" departLane="best" from="426927713#0" id="truck157" to="46892380" type="truck_truck" />
    <trip depart="94.49" departLane="best" from="14517187#0" id="truck159" to="565161446#0" type="truck_truck" />
    <trip depart="95.68" departLane="best" from="426927713#0" id="truck161" to="128519868" type="truck_truck" />
    <trip depart="97.47" departLane="best" from="-431552168" id="truck164" to="430126278" type="truck_truck" />
    <trip depart="104.60" departLane="best" from="39117751" id="truck176" to="171847637" type="truck_truck" />
    <trip depart="105.19" departLane="best" from="333520062#4" id="truck177" to="27639585#3" type="truck_truck" />
    <trip depart="111.73" departLane="best" from="19797658#3" id="truck188" to="154421037" type="truck_truck" />
    <trip depart="115.30" departLane="best" from="230628518" id="truck194" to="358278701" type="truck_truck" />
    <trip depart="117.08" departLane="best" from="237212807#1" id="truck197" to="492140388#1" type="truck_truck" />
    <trip depart="117.67" departLane="best" from="426507057" id="truck198" to="-425945263" type="truck_truck" />
    <trip depart="125.40" departLane="best" from="-373580561#0" id="truck211" to="236765475#2" type="truck_truck" />
    <trip depart="127.18" departLane="best" from="-490216495#1" id="truck214" to="437181266#1" type="truck_truck" />
    <trip depart="129.56" departLane="best" from="474015557" id="truck218" to="37916388#0" type="truck_truck" />
    <trip depart="137.28" departLane="best" from="204071640" id="truck231" to="278992350" type="truck_truck" />
    <trip depart="146.20" departLane="best" from="192583210#5" id="truck246" to="329094557#1" type="truck_truck" />
    <trip depart="150.36" departLane="best" from="-498875212" id="truck253" to="-27639611" type="truck_truck" />
    <trip depart="150.95" departLane="best" from="-172297075#5" id="truck254" to="277480298" type="truck_truck" />
    <trip depart="151.55" departLane="best" from="37916430#1" id="truck255" to="426696435#2" type="truck_truck" />
    <trip depart="156.30" departLane="best" from="424136014#0" id="truck263" to="-37916466" type="truck_truck" />
    <trip depart="162.25" departLane="best" from="425929198" id="truck273" to="185783795#3" type="truck_truck" />
    <trip depart="167.59" departLane="best" from="27238962#1" id="truck282" to="269678076#0" type="truck_truck" />
    <trip depart="169.97" departLane="best" from="4615022#1" id="truck286" to="-75479791" type="truck_truck" />
    <trip depart="171.16" departLane="best" from="183853715#1" id="truck288" to="-184753515" type="truck_truck" />
    <trip depart="171.75" departLane="best" from="436325257" id="truck289" to="-427400670#0" type="truck_truck" />
    <trip depart="172.94" departLane="best" from="157188563#8" id="truck291" to="465984314" type="truck_truck" />
    <trip depart="175.91" departLane="best" from="39048451#1" id="truck296" to="38841784#0" type="truck_truck" />
    <trip depart="177.10" departLane="best" from="-28807488#0" id="truck298" to="-517454500" type="truck_truck" />
    <trip depart="177.70" departLane="best" from="39048475#1" id="truck299" to="16653270#3" type="truck_truck" />
    <trip depart="180.08" departLane="best" from="39053410" id="truck303" to="131628104#3" type="truck_truck" />
    <trip depart="181.26" departLane="best" from="-427400858" id="truck305" to="-38570166#0" type="truck_truck" />
    <trip depart="181.86" departLane="best" from="27030139#0" id="truck306" to="426505699" type="truck_truck" />
    <trip depart="184.83" departLane="best" from="-427400913" id="truck311" to="-56394532#0" type="truck_truck" />
    <trip depart="187.80" departLane="best" from="448210019#3" id="truck316" to="27030066#5" type="truck_truck" />
    <trip depart="193.74" departLane="best" from="424586845" id="truck326" to="37909817" type="truck_truck" />
    <trip depart="197.31" departLane="best" from="-430127813#0" id="truck332" to="-465895356#0" type="truck_truck" />
    <trip depart="198.50" departLane="best" from="-425926837" id="truck334" to="-27030143#3" type="truck_truck" />
    <trip depart="203.25" departLane="best" from="23013102#1" id="truck342" to="279007742#2" type="truck_truck" />
    <trip depart="205.04" departLane="best" from="-418365015" id="truck345" to="16765274#0" type="truck_truck" />
    <trip depart="210.98" departLane="best" from="628293205" id="truck355" to="94522732" type="truck_truck" />
    <trip depart="212.17" departLane="best" from="-22999717" id="truck357" to="425930855" type="truck_truck" />
    <trip depart="213.95" departLane="best" from="244923473#3" id="truck360" to="-277478967#1" type="truck_truck" />
    <trip depart="215.73" departLane="best" from="142906168" id="truck363" to="39082331#11" type="truck_truck" />
    <trip depart="221.68" departLane="best" from="424396207#0" id="truck373" to="-438470510#0" type="truck_truck" />
    <trip depart="227.03" departLane="best" from="39081428#0" id="truck382" to="27639570#0" type="truck_truck" />
    <trip depart="227.62" departLane="best" from="-626721430#0" id="truck383" to="431548666#1" type="truck_truck" />
    <trip depart="240.10" departLane="best" from="-211556987#5" id="truck404" to="27570521#4" type="truck_truck" />
    <trip depart="241.88" departLane="best" from="39082313#0" id="truck407" to="231350474#1" type="truck_truck" />
    <trip depart="244.26" departLane="best" from="184006418#0" id="truck411" to="171848999#0" type="truck_truck" />
    <trip depart="250.80" departLane="best" from="-39056445#0" id="truck422" to="27667565" type="truck_truck" />
    <trip depart="252.58" departLane="best" from="450506570" id="truck425" to="37916533#2" type="truck_truck" />
    <trip depart="255.55" departLane="best" from="490216505" id="truck430" to="39056468#1" type="truck_truck" />
    <trip depart="259.71" departLane="best" from="27668192#6" id="truck437" to="33968269" type="truck_truck" />
    <trip depart="261.50" departLane="best" from="-635705576" id="truck440" to="329613767" type="truck_truck" />
    <trip depart="263.87" departLane="best" from="-8579169#0" id="truck444" to="427348447#1" type="truck_truck" />
    <trip depart="268.63" departLane="best" from="39120556#1" id="truck452" to="-27667975#0" type="truck_truck" />
    <trip depart="271.00" departLane="best" from="27030031#3" id="truck456" to="51835049#2" type="truck_truck" />
    <trip depart="271.60" departLane="best" from="427400761" id="truck457" to="127682584" type="truck_truck" />
    <trip depart="273.98" departLane="best" from="677774759#0" id="truck461" to="-39053421#0" type="truck_truck" />
    <trip depart="276.95" departLane="best" from="-16326412#2" id="truck466" to="27733787#2" type="truck_truck" />
    <trip depart="283.48" departLane="best" from="128515117#0-AddedOffRampEdge" id="truck477" to="27030089#5" type="truck_truck" />
    <trip depart="292.99" departLane="best" from="38508521" id="truck493" to="38738612#0" type="truck_truck" />
    <trip depart="297.15" departLane="best" from="-39056468#0" id="truck500" to="491638975" type="truck_truck" />
    <trip depart="298.34" departLane="best" from="-39053437#1" id="truck502" to="-39048433#1" type="truck_truck" />
    <trip depart="300.13" departLane="best" from="-165472958#6" id="truck505" to="427018862#4" type="truck_truck" />
    <trip depart="300.72" departLane="best" from="-450506569" id="truck506" to="172728802#1" type="truck_truck" />
    <trip depart="301.31" departLane="best" from="-425927631" id="truck507" to="-237455937#4" type="truck_truck" />
    <trip depart="304.88" departLane="best" from="425930854" id="truck513" to="450815129#1" type="truck_truck" />
    <trip depart="306.07" departLane="best" from="679174374" id="truck515" to="-248091976" type="truck_truck" />
    <trip depart="312.01" departLane="best" from="39051668#1" id="truck525" to="438471390#1" type="truck_truck" />
    <trip depart="313.20" departLane="best" from="39081886#0" id="truck527" to="-477789804#5" type="truck_truck" />
    <trip depart="316.17" departLane="best" from="183489030#1" id="truck532" to="-39081862#0" type="truck_truck" />
    <trip depart="322.11" departLane="best" from="325319810#1" id="truck542" to="192583208#4" type="truck_truck" />
    <trip depart="323.90" departLane="best" from="-377396455#1" id="truck545" to="436488788" type="truck_truck" />
    <trip depart="329.84" departLane="best" from="19796859#0" id="truck555" to="-39053432#3" type="truck_truck" />
    <trip depart="331.62" departLane="best" from="223479042#0" id="truck558" to="184765908" type="truck_truck" />
    <trip depart="333.41" departLane="best" from="-27660279#0" id="truck561" to="-237455938" type="truck_truck" />
    <trip depart="339.94" departLane="best" from="-430128166" id="truck572" to="-39049668" type="truck_truck" />
    <trip depart="342.92" departLane="best" from="427400929#1" id="truck577" to="428102023#0" type="truck_truck" />
    <trip depart="349.45" departLane="best" from="28807664#3" id="truck588" to="27644486#0" type="truck_truck" />
    <trip depart="351.24" departLane="best" from="-424212159" id="truck591" to="27639582#0" type="truck_truck" />
    <trip depart="356.58" departLane="best" from="424211905#0" id="truck600" to="425942451#2" type="truck_truck" />
    <trip depart="358.37" departLane="best" from="369637283" id="truck603" to="449612098#2" type="truck_truck" />
    <trip depart="358.96" departLane="best" from="369907196#8" id="truck604" to="-39081849#0" type="truck_truck" />
    <trip depart="360.15" departLane="best" from="128511300" id="truck606" to="131655879" type="truck_truck" />
    <trip depart="362.53" departLane="best" from="436647794" id="truck610" to="37916456#2" type="truck_truck" />
    <trip depart="366.09" departLane="best" from="-39077901#3" id="truck616" to="-251629009#1" type="truck_truck" />
    <trip depart="368.47" departLane="best" from="-477587486#5" id="truck620" to="237587407#1" type="truck_truck" />
    <trip depart="372.04" departLane="best" from="38738776#0" id="truck626" to="134463317#2" type="truck_truck" />
    <trip depart="374.41" departLane="best" from="683275990#2" id="truck630" to="39117758#3" type="truck_truck" />
    <trip depart="376.79" departLane="best" from="427018758#0" id="truck634" to="39053409" type="truck_truck" />
    <trip depart="378.57" departLane="best" from="37916346#0" id="truck637" to="236120861#0" type="truck_truck" />
    <trip depart="380.36" departLane="best" from="622465138" id="truck640" to="27030006" type="truck_truck" />
    <trip depart="382.14" departLane="best" from="-34439046#0" id="truck643" to="426511384#0" type="truck_truck" />
    <trip depart="391.65" departLane="best" from="184013932#1" id="truck659" to="27660283" type="truck_truck" />
    <trip depart="393.43" departLane="best" from="-490216500" id="truck662" to="38738610#1" type="truck_truck" />
    <trip depart="394.62" departLane="best" from="-358278702#0" id="truck664" to="436488793" type="truck_truck" />
    <trip depart="396.40" departLane="best" from="504569150#0" id="truck667" to="-39077816#1" type="truck_truck" />
    <trip depart="397.59" departLane="best" from="-431550230" id="truck669" to="244923477#2" type="truck_truck" />
    <trip depart="399.37" departLane="best" from="-448209065#3" id="truck672" to="8579215" type="truck_truck" />
    <trip depart="402.35" departLane="best" from="-39051473#2" id="truck677" to="405489974#1" type="truck_truck" />
    <trip depart="404.72" departLane="best" from="39117744#4" id="truck681" to="27660302#0" type="truck_truck" />
    <trip depart="405.32" departLane="best" from="-37909828" id="truck682" to="14406786#0" type="truck_truck" />
    <trip depart="407.10" departLane="best" from="231355586#2" id="truck685" to="-37909827#3" type="truck_truck" />
    <trip depart="414.83" departLane="best" from="426504884#1" id="truck698" to="185627509#1" type="truck_truck" />
    <trip depart="416.02" departLane="best" from="425456021" id="truck700" to="424421108" type="truck_truck" />
    <trip depart="420.77" departLane="best" from="-231281379" id="truck708" to="-431548664#0" type="truck_truck" />
    <trip depart="422.55" departLane="best" from="424211753#2" id="truck711" to="-430119210" type="truck_truck" />
    <trip depart="436.82" departLane="best" from="-27030032#2" id="truck735" to="426696412#1" type="truck_truck" />
    <trip depart="439.19" departLane="best" from="179551764" id="truck739" to="426505710" type="truck_truck" />
    <trip depart="443.35" departLane="best" from="231284704#1" id="truck746" to="8579553" type="truck_truck" />
    <trip depart="445.73" departLane="best" from="488011523#1" id="truck750" to="241249712#10" type="truck_truck" />
    <trip depart="448.70" departLane="best" from="436333141#1" id="truck755" to="418365015" type="truck_truck" />
    <trip depart="450.48" departLane="best" from="-38709150" id="truck758" to="-436333197#0" type="truck_truck" />
    <trip depart="452.86" departLane="best" from="27639585#3" id="truck762" to="37916373#0" type="truck_truck" />
    <trip depart="454.05" departLane="best" from="94522732" id="truck764" to="423987650#0" type="truck_truck" />
    <trip depart="458.21" departLane="best" from="-426927767" id="truck771" to="679182701#0" type="truck_truck" />
    <trip depart="463.56" departLane="best" from="247061292" id="truck780" to="-425934225" type="truck_truck" />
    <trip depart="464.75" departLane="best" from="37916646" id="truck782" to="424210754#0" type="truck_truck" />
    <trip depart="479.61" departLane="best" from="424421108" id="truck807" to="272898751" type="truck_truck" />
    <trip depart="482.58" departLane="best" from="16976173" id="truck812" to="-237455924#1" type="truck_truck" />
    <trip depart="483.77" departLane="best" from="37916511#2" id="truck814" to="255818924#3" type="truck_truck" />
    <trip depart="485.55" departLane="best" from="39117744#6" id="truck817" to="426505718#2" type="truck_truck" />
    <trip depart="492.68" departLane="best" from="237455899" id="truck829" to="244936702#0" type="truck_truck" />
    <trip depart="495.06" departLane="best" from="409861329#1" id="truck833" to="16238438#3" type="truck_truck" />
    <trip depart="501.60" departLane="best" from="280118519#3" id="truck844" to="-426505695#1" type="truck_truck" />
    <trip depart="504.57" departLane="best" from="-172297075#3" id="truck849" to="171847637" type="truck_truck" />
    <trip depart="505.76" departLane="best" from="211061213#1" id="truck851" to="426602671#1" type="truck_truck" />
    <trip depart="506.35" departLane="best" from="547305684#3" id="truck852" to="454601628" type="truck_truck" />
    <trip depart="507.54" departLane="best" from="-39049653" id="truck854" to="-448210019#0" type="truck_truck" />
    <trip depart="512.29" departLane="best" from="-472258017" id="truck862" to="318221356#4" type="truck_truck" />
    <trip depart="515.26" departLane="best" from="577947621#3" id="truck867" to="427243114#2" type="truck_truck" />
    <trip depart="519.42" departLane="best" from="230784544#1" id="truck874" to="125451135#3" type="truck_truck" />
    <trip depart="520.61" departLane="best" from="27238983#1" id="truck876" to="565942870" type="truck_truck" />
    <trip depart="521.80" departLane="best" from="35472705" id="truck878" to="369630800" type="truck_truck" />
    <trip depart="522.99" departLane="best" from="27030031#5" id="truck880" to="38631715#3" type="truck_truck" />
    <trip depart="523.58" departLane="best" from="-244936614#0" id="truck881" to="231355575#1" type="truck_truck" />
    <trip depart="529.53" departLane="best" from="462992753" id="truck891" to="-427018779#3" type="truck_truck" />
    <trip depart="531.31" departLane="best" from="587918133" id="truck894" to="662540606#1" type="truck_truck" />
    <trip depart="534.88" departLane="best" from="587922691" id="truck900" to="438470922" type="truck_truck" />
    <trip depart="543.79" departLane="best" from="-14521675#0" id="truck915" to="39046427#4" type="truck_truck" />
    <trip depart="544.39" departLane="best" from="39048488#2" id="truck916" to="-251629009#1" type="truck_truck" />
    <trip depart="546.76" departLane="best" from="131628108#0" id="truck920" to="-38360276#0" type="truck_truck" />
    <trip depart="548.55" departLane="best" from="-39048494#1" id="truck923" to="-39081863#1" type="truck_truck" />
    <trip depart="557.46" departLane="best" from="255818931#2" id="truck938" to="244936694" type="truck_truck" />
    <trip depart="559.84" departLane="best" from="423734890#1" id="truck942" to="35472694#0" type="truck_truck" />
    <trip depart="568.16" departLane="best" from="-431552168" id="truck956" to="-128508553" type="truck_truck" />
    <trip depart="569.35" departLane="best" from="38631715#0" id="truck958" to="279007742#1" type="truck_truck" />
    <trip depart="573.51" departLane="best" from="-171847238#0" id="truck965" to="-447927890" type="truck_truck" />
    <trip depart="575.29" departLane="best" from="-237455939" id="truck968" to="424630843" type="truck_truck" />
    <trip depart="576.48" departLane="best" from="-430128620" id="truck970" to="449611525" type="truck_truck" />
    <trip depart="577.07" departLane="best" from="-248091948" id="truck971" to="27586532#2" type="truck_truck" />
    <trip depart="580.04" departLane="best" from="-39053432#1" id="truck976" to="39048494#4" type="truck_truck" />
    <trip depart="580.64" departLane="best" from="-431548668" id="truck977" to="16257561#1" type="truck_truck" />
    <trip depart="584.20" departLane="best" from="425934948" id="truck983" to="172297064#2" type="truck_truck" />
    <trip depart="585.39" departLane="best" from="183752940#0" id="truck985" to="425929169#3" type="truck_truck" />
    <trip depart="600.25" departLane="best" from="523151228" id="truck1010" to="211455039" type="truck_truck" />
    <trip depart="600.84" departLane="best" from="211556987#2" id="truck1011" to="325044599#2" type="truck_truck" />
    <trip depart="601.44" departLane="best" from="-431548668" id="truck1012" to="-39056475#2" type="truck_truck" />
    <trip depart="605.00" departLane="best" from="39046009" id="truck1018" to="127683181" type="truck_truck" />
    <trip depart="607.98" departLane="best" from="241318602#0" id="truck1023" to="521381109#1" type="truck_truck" />
    <trip depart="615.70" departLane="best" from="-635718958#1" id="truck1036" to="76695850#1" type="truck_truck" />
    <trip depart="616.30" departLane="best" from="-171848165#1" id="truck1037" to="430120552" type="truck_truck" />
    <trip depart="619.27" departLane="best" from="427018784#1" id="truck1042" to="128521816" type="truck_truck" />
    <trip depart="619.86" departLane="best" from="196799722#1" id="truck1043" to="211556990" type="truck_truck" />
    <trip depart="621.65" departLane="best" from="39046004#3" id="truck1046" to="437066382#1" type="truck_truck" />
    <trip depart="624.02" departLane="best" from="-246848881" id="truck1050" to="-131655869" type="truck_truck" />
    <trip depart="624.62" departLane="best" from="-424630866#1" id="truck1051" to="273593640#2" type="truck_truck" />
    <trip depart="628.18" departLane="best" from="237455926#1" id="truck1057" to="-231715366#0" type="truck_truck" />
    <trip depart="629.37" departLane="best" from="48802847#0" id="truck1059" to="325320427#4" type="truck_truck" />
    <trip depart="634.13" departLane="best" from="14406970#2" id="truck1067" to="425930848" type="truck_truck" />
    <trip depart="637.10" departLane="best" from="15808047#0" id="truck1072" to="426507058" type="truck_truck" />
    <trip depart="637.69" departLane="best" from="645595746" id="truck1073" to="230629146" type="truck_truck" />
    <trip depart="641.26" departLane="best" from="-27660302#3" id="truck1079" to="37916524#3" type="truck_truck" />
    <trip depart="644.23" departLane="best" from="-373580561#0" id="truck1084" to="-128511300" type="truck_truck" />
    <trip depart="645.42" departLane="best" from="-427253378" id="truck1086" to="244821404#0" type="truck_truck" />
    <trip depart="646.01" departLane="best" from="27639611" id="truck1087" to="231350458#0" type="truck_truck" />
    <trip depart="656.71" departLane="best" from="142906167#1" id="truck1105" to="183752940#0" type="truck_truck" />
    <trip depart="657.30" departLane="best" from="427018812" id="truck1106" to="447927890" type="truck_truck" />
    <trip depart="657.90" departLane="best" from="75329379" id="truck1107" to="-39049638#0" type="truck_truck" />
    <trip depart="659.09" departLane="best" from="-430123092" id="truck1109" to="171847845#4" type="truck_truck" />
    <trip depart="663.25" departLane="best" from="310454387#0" id="truck1116" to="280118522#1" type="truck_truck" />
    <trip depart="663.84" departLane="best" from="39014083" id="truck1117" to="28807598#2" type="truck_truck" />
    <trip depart="664.44" departLane="best" from="638729322#2" id="truck1118" to="246848875" type="truck_truck" />
    <trip depart="666.81" departLane="best" from="369915384#2" id="truck1122" to="-72614032#0" type="truck_truck" />
    <trip depart="677.51" departLane="best" from="246708374" id="truck1140" to="185627512#1" type="truck_truck" />
    <trip depart="684.64" departLane="best" from="27639645#2" id="truck1152" to="646564636" type="truck_truck" />
    <trip depart="686.42" departLane="best" from="230628527#1" id="truck1155" to="-184855989#1" type="truck_truck" />
    <trip depart="687.02" departLane="best" from="345301157#1" id="truck1156" to="-430128415#0" type="truck_truck" />
    <trip depart="689.40" departLane="best" from="-27029997#9" id="truck1160" to="-339103685#0" type="truck_truck" />
    <trip depart="689.99" departLane="best" from="450833652#0" id="truck1161" to="-428111149#0" type="truck_truck" />
    <trip depart="693.56" departLane="best" from="430128040" id="truck1167" to="37916494#4" type="truck_truck" />
    <trip depart="695.34" departLane="best" from="-27660267#1" id="truck1170" to="-39048510#0" type="truck_truck" />
    <trip depart="698.91" departLane="best" from="39048494#1" id="truck1176" to="38738784" type="truck_truck" />
    <trip depart="701.88" departLane="best" from="-134362567#0" id="truck1181" to="-39049641#2" type="truck_truck" />
    <trip depart="704.25" departLane="best" from="430122065#0" id="truck1185" to="27030027#4" type="truck_truck" />
    <trip depart="708.41" departLane="best" from="427243117#2" id="truck1192" to="211060852#0" type="truck_truck" />
    <trip depart="710.79" departLane="best" from="427400712#2" id="truck1196" to="425926573#1" type="truck_truck" />
    <trip depart="711.39" departLane="best" from="128508553" id="truck1197" to="8841627#1" type="truck_truck" />
    <trip depart="715.55" departLane="best" from="-418365015" id="truck1204" to="-39053412#0" type="truck_truck" />
    <trip depart="720.30" departLane="best" from="674506709#2" id="truck1212" to="427018758#4" type="truck_truck" />
    <trip depart="721.49" departLane="best" from="448209068#0" id="truck1214" to="-39014080#2" type="truck_truck" />
    <trip depart="722.08" departLane="best" from="448209061" id="truck1215" to="-8579183" type="truck_truck" />
    <trip depart="725.05" departLane="best" from="231350477#0" id="truck1220" to="38630334#2" type="truck_truck" />
    <trip depart="727.43" departLane="best" from="627182616#5" id="truck1224" to="172868748#1" type="truck_truck" />
    <trip depart="731.59" departLane="best" from="-587918116#2" id="truck1231" to="430128408" type="truck_truck" />
    <trip depart="732.19" departLane="best" from="153878962" id="truck1232" to="352366651#1" type="truck_truck" />
    <trip depart="738.13" departLane="best" from="37916524#1" id="truck1242" to="-8579406" type="truck_truck" />
    <trip depart="738.72" departLane="best" from="176499525" id="truck1243" to="503238112#1" type="truck_truck" />
    <trip depart="741.10" departLane="best" from="39053416#3" id="truck1247" to="-124962747#2" type="truck_truck" />
    <trip depart="741.70" departLane="best" from="237455936#2" id="truck1248" to="-39048489#2" type="truck_truck" />
    <trip depart="745.26" departLane="best" from="39120533#2" id="truck1254" to="-342616608" type="truck_truck" />
    <trip depart="746.45" departLane="best" from="-39049636#0" id="truck1256" to="426599085" type="truck_truck" />
    <trip depart="748.83" departLane="best" from="37916430#0" id="truck1260" to="238318428#1" type="truck_truck" />
    <trip depart="750.61" departLane="best" from="39046427#2" id="truck1263" to="448209064#0" type="truck_truck" />
    <trip depart="751.20" departLane="best" from="-27667342#1" id="truck1264" to="-337865808#1" type="truck_truck" />
    <trip depart="752.99" departLane="best" from="131655869" id="truck1267" to="-39053416#1" type="truck_truck" />
    <trip depart="753.58" departLane="best" from="-677774759#1" id="truck1268" to="-27639636#0" type="truck_truck" />
    <trip depart="759.52" departLane="best" from="312280064#0" id="truck1278" to="27660302#5" type="truck_truck" />
    <trip depart="766.66" departLane="best" from="-27639665" id="truck1290" to="27733787#2" type="truck_truck" />
    <trip depart="767.25" departLane="best" from="355326292#1" id="truck1291" to="133124801#1" type="truck_truck" />
    <trip depart="767.85" departLane="best" from="130808669" id="truck1292" to="27639585#1" type="truck_truck" />
    <trip depart="772.01" departLane="best" from="-27661101" id="truck1299" to="237455940#0" type="truck_truck" />
    <trip depart="773.79" departLane="best" from="416452348" id="truck1302" to="-38570166#0" type="truck_truck" />
    <trip depart="775.57" departLane="best" from="265227053#15" id="truck1305" to="426927713#1" type="truck_truck" />