<routes xmlns:xsi="http://www.w3.org/2001/XMLSchema-instance" xsi:noNamespaceSchemaLocation="http://sumo.dlr.de/xsd/routes_file.xsd">
    <vType id="truck_truck" vClass="truck" />
    <vehicle depart="0.59" departLane="best" id="truck1" type="truck_truck">
        <route edges="-638729328#0 -14521675#3 27691796#4 -427243115#0 -427243117#1 -427243117#0 638729322#2 638729322#3 638729322#4 638729322#5 638729322#6 638729322#7 638729322#8 638729322#9 638729322#10 638729322#11 577924801 28725762 176499525 241249712#8 241249712#10 427400766#1 427400766#3 427400867#2 477789804#0 38738779#0 38738779#1 38738774#3 38738764#0 38738764#1 -430124251 -330594187#0 -53826080#0" />
    </vehicle>
    <vehicle depart="1.78" departLane="best" id="truck3" type="truck_truck">
        <route edges="476994770 8579726 231226535#1 454692163 454692167#0 454692167#1 195270962 454697529#0 454697529#1 454693652 454698074 333172735#1 333172735#3 333172735#5 333172735#6 333172735#7 333172735#8 329613766#0 329613766#1 237587407#0 237587407#1 237587407#3 237587407#4 237587407#5 454576377#0 454576377#1 424211021#0 424211021#2 424211021#3 424211021#4 211556987#8 211556987#9 211556987#10 211556987#11 211556987#12 230628532#0 230628532#1 424211533 230784038#0 230784038#1 230784024 230784029#0 230784029#1 230784029#2 230784034 230784037 230784035 516406073 14406970#0 14406970#1 14406970#2 417676407 407754202 230784086#0 230784086#1 370514753#0 370514753#1 27644520#0 27639641#0 27639641#1 27639641#2 373580563 661786919#3 -27644487#2" />
    </vehicle>
    <vehicle depart="8.91" departLane="best" id="truck15" type="truck_truck">
        <route edges="426696421#4 426696421#5 426603437#0 426601875 359790104#0 359790104#1 359790104#2 426696416#1 369467064#1 369467064#2 231355591#0 474493463#0 493367006#0 493367006#1 493367006#2 424211753#0 424211753#1 424211753#2 230784029#0 230784029#1 230784029#2 230784034 426511156 426511888#7 426511384#1 424222641" />
    </vehicle>
    <vehicle depart="11.89" departLane="best" id="truck20" type="truck_truck">
        <route edges="-436646700 27733787#4 27733787#5 325015629#2 27333554#1 27333554#2 325320427#4 325320427#5 325320427#6 27639562 661786908 661786910 661786917 661786915#0 661786915#1 661786915#4 520283614#0 520283614#1 27639633#0 -436333204 436333206#1 436333206#3 679174597 -27639585#5 -27639585#4 -27639585#3 -27639585#2 -27639585#1 -27639585#0 185783795#12 185783795#13 369907195#1 369907195#2 369907195#3 369907195#4 369907195#6 369907195#7 369907195#8 255792502#0 401011169#2 401011169#3 439631884 369907203#0 369907203#2 369907203#3 369907203#5 369907207#0 369907207#1 369907207#4 369907207#5 369907210#1 244739220 212554514#0 212554514#1 212554514#2 212554508 14519876#1" />
    </vehicle>
    <vehicle depart="26.74" departLane="best" id="truck45" type="truck_truck">
        <route edges="-27030008#1 430126494#0 430126494#1 27030009 -211061212 39081435 39081434#1 39081406#0 237212803#1 237212803#2 237212803#3 -211061213#1 -211061213#0 -211455037#3 -211455037#2 -211455037#1 -211455037#0 60252054 -244936600 -244936602 -211455035#4 -211455035#3 -211455035#2 -211455035#1 -211455035#0 -27030148#2 -27030148#1 -27030148#0 38738777#0 38738777#1 38738776#0 38738776#1 38738776#2 363528979#0 363528979#1 363528979#2 246708373 38738780 62268206 211456024 211456026#0 577924800#2 577924800#4 8578611 427243067 426927728#0 426927728#1 426927728#2 426927728#3 426927728#5 425942465#1 426927766#1 27668372#0 27668372#1 425942461 -425942443#2 -425942443#1 -425942443#0 8547794#0 8547794#1 8547794#2 415845846 325044597#0 325044597#1 351360736 325044599#0 325044599#2 125451184#0 255818947#0 439768950#0 8149120#0 8149120#1 8149120#2 8149120#3 8149120#4 231350472#1 427018817#1 427018817#2 427018758#3 427018758#4 427018758#5 427018829#3 427018829#4 427018831 369915384#2 255845157#0 255845157#1 124962721#0 27639645#1 661786919#2 661786919#3 661786919#4 679174375#0 679174375#2 679174374 -436333204 436333206#1 436333206#3 679174597 -27639585#5 -27639585#4 -27639585#3 -27639585#2 -27639585#1 27639600 369907196#1 -172308673#5 -172308673#4 -172308673#3 -172308673#2 -172308673#1 229480983#3 229480983#4" />
    </vehicle>
    <vehicle depart="27.93" departLane="best" id="truck47" type="truck_truck">
        <route edges="72767342-AddedOnRampEdge 72767342 -425930861#2 -425930861#1 -425930861#0 -578707887#1 -578707887#0 -196799728 196799740 196799741 231715365 231715376#0 231715376#1 422062695#0 422062695#1 27611266 498338005 241249712#1 38738786 -427400671#5 -427400671#4 -427400671#3 -427400671#2 -427400671#1 -427400671#0 -248091948 248091951 248091957 231284704#1 231284704#2 231284704#3 246848876#0 246848876#1 246848876#2 246848876#3 39117764#0 39117764#1 427400799#0 427400799#1 -448209065#1 -448209065#0 -448209066 448209069 448209062 448209066" />
    </vehicle>
    <vehicle depart="30.90" departLane="best" id="truck52" type="truck_truck">
        <route edges="231350482#3 -418365018#0 426605965#1 426605965#2 426605965#3 426605965#4 231350472#1 427018817#1 427018817#2 427018758#3 427018758#4 427018758#5 427018829#3 427018829#4 427018831 369915384#2 255845157#0 255845157#1 124962721#0 27639645#1 661786919#2 661786919#3 661786919#4 679174375#0 679174375#2 679174374 -436333204 436333206#1 436333206#3 679174597 -27639585#5 -27639585#4 -27639585#3 -27639585#2 -27639585#1 -27639585#0 185783795#12 185783795#13 369907195#1 369907195#2 369907195#3 369907195#4 369907195#6 369907195#7 369907195#8 255792502#0 401011169#2 401011169#3 439631884 369907203#0 369907203#2 369907203#3 369907203#5 369907207#0 369907207#1 369907207#4 369907207#5 369907210#1 417991507#1 154421036 236732316 628293209#0" />
    </vehicle>
    <vehicle depart="37.44" departLane="best" id="truck63" type="truck_truck">
        <route edges="454680854#1 211556987#0 211556987#1 211556987#2 211556987#4 211556987#6 211556987#7 211556987#8 211556987#9 211556987#10 211556987#11 211556987#12 230628534#1 230628534#2 196799732 230783567#1 230783567#2 230783567#3 186496572#0 186496572#1 186496572#2 186496572#3 186496572#4 37909831 244739181 437233641 79159521 -184765910 358278701 184765909#0 244923481 -184765907 -598422932 -37909827#3 -37909827#2 -184745785#1 -184745785#0 37909825#2 238318430#1 238318430#2 238318430#3 597462023" />
    </vehicle>
    <vehicle depart="40.41" departLane="best" id="truck68" type="truck_truck">
        <route edges="-560269842#1 560269841 172297666#2 -426507056 229480632#0 229480632#1 284347439#3 284347439#4 450878336 450878337#0 229480221#0 229480221#1 426510606 262851660#0 262851660#1 262851660#2 262851660#3 672491572 262851658 4534456 129439666 426510831 9931242#0 255838497#3 255838497#4 255838497#5 230637724#1 199890396#0 199890396#2 199890396#3 199890396#5 199890396#6 199890396#7 199890396#8 199890396#9 230628805#0 230628805#1 230628805#2 230628805#4 230628805#5 230628805#6 211556988 454576378" />
    </vehicle>
    <vehicle depart="43.38" departLane="best" id="truck73" type="truck_truck">
        <route edges="230629147#1 230629147#2 230629147#3 230629147#4 448210017 38585129#0 38585129#1 38585129#2 448210015#0 231404625 171847845#0 171847845#1 171847845#2 171847845#3 171847845#4 76695773#0 76695773#1 76695773#2 76695773#3 76695773#4 -247061292 171847101#0 171847101#1 134462241#0 134462241#1 134462241#1-AddedOffRampEdge 134462241#2 134462241#3 134462241#4 134462241#5-AddedOnRampEdge 134462241#5 449611526#0 449611526#1 449611525 449612098#0 449612098#1 449612098#2 449612097 16238205#0 265227055#1 325319811#0 325319811#1 325319811#2 426504424 407753018#0 407753018#1 407753018#2 231345868 229480219#0 229480219#1 427253366#1 231350480#1 231350480#2 632976630#1 632976630#2 436488793 27639632#0" />
    </vehicle>
    <vehicle depart="45.76" departLane="best" id="truck77" type="truck_truck">
        <route edges="-27030143#2 -27030143#1 -27030143#0 -545465138#2 27030139#0 27030139#1 -405489977#0 -27030148#2 -27030148#1 -27030148#0 38738777#0 38738777#1 38738776#0 38738776#1 38738776#2 363528979#0 363528979#1 363528979#2 246708373 38738780 62268206 211456024 211456026#0 577924800#2 14406394#0 14406394#1 14406394#3 422062695#0 422062695#1 231715377 231715374#0 231715374#0-AddedOffRampEdge 231715374#1 231715370 231715375#0 231715375#1 38631708 72767342-AddedOnRampEdge 72767342 38631710 72614035#0 231713631#0 425929162#0 425929162#0-AddedOffRampEdge 425929162#1 425929162#2 278916131 199121003 62265344#0 62265344#1 62265345#1 586624080 133124802 133124801#0 133124801#1 454680853 211556995#0 211556995#1 424396207#0 424396207#1 424396207#2 424396207#3 27238788#0 27238788#1 27238788#2 27238788#3 -428733941 -230629149 428733944 358278706#0 358278706#1 34436958#1 34436958#2 -423496969 230629147#0 230629147#1 230629147#2 230629147#3 230629147#4 448210017 38585129#0 38585129#1" />
    </vehicle>
    <vehicle depart="49.33" departLane="best" id="truck83" type="truck_truck">
        <route edges="237169411 -128511296 37916640#3 371375600#1 128515111 183462533 212353005#0 212353005#1 212353005#2 22909512 565903323#0 565903323#1 128519864 211060895 237212803#0 237212803#1 237212803#2 237212803#3 -211061213#1 -211061213#0 -211455037#3 -211455037#2 -211455037#1 -211455037#0 60252054 -244936600 -244936602 -211455035#4 -211455035#3 -211455035#2 -211455035#1 -211455035#0 -27030148#2 -27030148#1 -27030148#0 38738777#0 38738777#1 38738776#0 38738776#1 38738776#2 363528979#0 363528979#1 363528979#2 246708373 38738780 62268206 211456024 211456026#0 577924800#2 577924800#4 8578611 427243067 426927728#0 426927728#1 426927728#2 -425942451#2 -425942451#1 426927738#3 426927754#1" />
    </vehicle>
    <vehicle depart="52.89" departLane="best" id="truck89" type="truck_truck">
        <route edges="19797659#0 19797659#1 19797659#2 19797659#3 19797659#4 19797659#5 19797659#6 587922690#4 35472693#0 -237455929 -237455928#1 -237455928#0 -172744182#1 -19796858#0 -76695850#3 -76695850#2 -76695850#1 -19796862#2 -19796862#1 -19796862#0 19796861#0 19796861#1 4567098 -28807664#7 -28807664#5 -28807664#3 -28807664#2 -28807664#1 -28807664#0 172297063#1 172297063#2 172297063#3 172297063#4 28807592#4 265227053#13 265227053#14 265227053#15 265227053#16 16768116 16768116-AddedOffRampEdge 628293205 154421023#0 196799726#0 196799726#1 196799727#1 369907208#1 369907208#2 369907208#3 195294104#0 195294104#1 439634848 439634849#1 439634849#2 401011170#1 369907199#2 369907199#3 184013932#0" />
    </vehicle>
    <vehicle depart="54.68" departLane="best" id="truck92" type="truck_truck">
        <route edges="229480219#0 229480219#1 427253366#1 427253366#4 427253366#7 230784087#1 230784087#3 230784087#4 231350481#0 231350481#1 231350481#2 231350481#3 231350481#4 231350475#0 231350475#1 231350475#2 231350483#0 231350483#1 231350483#3 231350483#4 231350474#0 231350474#1 4567096 234731992#0 321139490#0 4567105 8547798#0 401762565#0 401762565#1 -325044600#0 211456025 460071969 638729322#0 638729322#2 638729322#3 638729322#4 638729322#5 638729322#6 638729322#7 638729322#8 638729322#9 638729322#10 638729322#11 577924801 28725762 176499525 241249712#8 241249712#10 427400766#1 427400766#3 427400867#2 -427400930 -363528979#1 -363528979#0 -38738605#6 -38738605#5 -38738605#4 -38738605#2 -38738605#1 27030148#1 27030148#2 211455040 244936702#0 244936702#1 244936702#2 211455038 56394532#0 56394532#1 56394532#2 39082313#0 39082313#1 39082313#2 39082313#3 427400926#2 39082302#1 39082331#0 39082331#1 39082331#3 39082331#4 39082331#5 39082331#6 39082331#7 39082331#8 39082331#9 39082331#10 237455937#3 237455937#4 237455937#5 39120544#0 39120544#1 621615816#0 621615816#1 133333367#4" />
    </vehicle>
    <vehicle depart="58.84" departLane="best" id="truck99" type="truck_truck">
        <route edges="239019932#1 321139490#0 4567105 234731991 14519097#0 14519097#1 231350468 255818947#0 439768950#0 8149120#0 8149120#1 8149120#2 8149120#3 8149120#4 231350447#0 231350447#3 231350476 231350458#0 231350458#1 231350458#2 231350458#3 231350477#0 231350477#1 230784085#0 230784085#1 230784085#3 231350452#1 427253368#1 231350459#0 231350459#1 231350459#2 231350459#3 4567097 231345867#0 231345867#1 450833653#0-AddedOnRampEdge 450833653#0 450833653#1 426504423 405498518#0 405498518#1 405498518#2 265227056#1 265227056#2 265227056#3 426505724#1 14518869 449612685 8431670#1 19796859#0 19796859#1 19796859#2 19796862#0 19796862#1 19796862#2 76695850#1 76695850#2 76695850#3 76695850#4 172744182#1 237455928#0 237455928#1 237455929 123374521#0 237455898#4 -19797659#6 -19797659#5 -19797659#4 -19797659#3 -19797659#2 -472258016" />
    </vehicle>
    <vehicle depart="63.59" departLane="best" id="truck107" type="truck_truck">
        <route edges="71958447#1 71958447#2 27666905#2 241318602#0 241318602#1 241318602#2 241318602#3 230628520#0 230628520#1 261785599#0 261785599#1 261785599#2 261785599#3 230628521#0 230628521#1 230628521#2 230628521#3 231390618#0 231390618#1 231390618#2 231390618#3 231390618#4 577924801 28725762 176499525 231281377#0 38738786 427400671#6 27030066#0 27030066#1 27030066#2 27030066#3 27030066#4 27030066#5 27030066#6 27030066#7 27030066#8 27030066#9 211061213#0 211061213#1 211061210#0 211061210#1-AddedOnRampEdge 211061210#1 39081434#0 39081434#1 39081434#2 39081434#3 39081434#4 -128519864 79669498#0 79669498#1 128511291#0 128511291#1 128511291#2 620987193#0 620987193#1 183462527#1 183462563-AddedOnRampEdge 183462563 15260367 15260367-AddedOffRampEdge 15260356 279007737 279007738#1 183462549 674506709#0 674506709#2 167147488 237048497#0 237048497#1 37916365 279007741#0 279007741#1 410081053-AddedOnRampEdge 410081053 -37916369#3 355326291" />
    </vehicle>
    <vehicle depart="65.97" departLane="best" id="truck111" type="truck_truck">
        <route edges="-39081888#0 -237455925#3 -237455925#2 -237455925#0 -547305685#3 -547305685#2 447117757#2 447117757#3 447117757#4 132236347#0 132236347#1 132236347#2 132236347#3 132236347#4 -27030089#7 -27030089#6 27030106 27030002#0 27030002#1 -278992347 27029997#8 27029997#9 -545465138#2 27030139#0 27030139#1 -405489977#0 -27030148#2 -27030148#1 -27030148#0 38738777#0 38738777#1 38738776#0 38738776#1 38738776#2 363528979#0 363528979#1 363528979#2 246708373 38738780 62268206 211456024 211456026#0 577924800#2 577924800#4 8578611 427243067 426927728#0 426927728#1 426927728#2 426927728#3 426927728#5 425942465#1 426927766#1 27668372#0 27668372#1 425942461 -425942443#2 -425942443#1 -425942443#0 8547794#0 8547794#1 8547794#2 415845846 325044597#0 325044597#1 351360736 325044599#0 325044599#2 125451184#0 255818947#0 439768950#0 8149120#0 8149120#1 8149120#2 8149120#3 8149120#4 231350472#1 427018817#1 427018817#2 427018758#3 427018758#4 427018758#5 427018829#3 427018829#4 427018831 369915384#2 255845157#0 255845157#1 124962725#0 436333141#1 661786914#1 661786914#2" />
    </vehicle>
    <vehicle depart="66.56" departLane="best" id="truck112" type="truck_truck">
        <route edges="-27639632#2 -27639632#1 -27644490#1 -27644490#0 27639631#0 27639631#1 436488791#1 16326434#0 16326434#1 16326434#2 16326434#5 16326434#6 16326434#7 27570521#0 27570521#1 27570521#2 27570521#3 27570521#4 427018862#0 427018862#1 427018862#2 427018862#3 -255905293#1 436488790 231350474#1 4567096 234731992#0 321139490#0 4567105 8547798#0 401762565#0 401762565#1 -325044600#0 211456025 460071969 638729322#0 638729322#2 638729322#3 638729322#4 638729322#5 638729322#6 638729322#7 638729322#8 638729322#9 638729322#10 638729322#11 577924801 28725762 176499525 231281377#0 38738786 427400671#6 27030066#0 27030066#1 27030066#2 27030066#3 27030066#4 -477789804#5 -477789804#4 -477789804#3 -477789804#2 -477789804#0 -427400867#2" />
    </vehicle>
    <vehicle depart="69.53" departLane="best" id="truck117" type="truck_truck">
        <route edges="221635258#2 221635258#3 265227053#7 265227053#8 28807488#0 28807488#2 626721428 626721430#1 626721430#2 626721430#3 556750747#5 556750747#6 556750747#7 134462812 329094557#3 634284802#0 634284802#1 325319809 231345865 231345869#0 231345869#2 231345869#3 329262771#1 284347439#1 284347439#3 284347439#4 450878336 450878337#0 229480221#0 229480221#1 426511732#0 426510611 359790125#0 359790125#1" />
    </vehicle>
    <vehicle depart="70.13" departLane="best" id="truck118" type="truck_truck">
        <route edges="265227053#13 265227053#14 265227053#15 440243044 440243045 439894863#0 439894863#1 244923471#0 244923471#1 244923471#2 244923471#3 244923471#4 439894864 439894866 439894869#0 439894869#1 439635263 262460754#0 262460754#1 262460754#2 262460754#3 556750747#0 556750747#1 556750747#3 556750747#4 556750747#5 556750747#6 556750747#7 556750747#8 556750747#9 556750747#9-AddedOffRampEdge 556750747#10 556750747#11 451601407#1 329262588 325319810#0 325319810#1 325319810#2 325319810#3 427253366#1 427253366#4 427253366#7 230784087#1 230784087#3 230784087#4 231350481#0 231350481#1 231350481#2 231350481#3 231350481#4 231350475#0 231350475#1 231350475#2 231350483#0 231350483#1 231350483#3 231350483#4 427018864#1 231350482#1 231350482#2 576954816#2" />
    </vehicle>
    <vehicle depart="70.72" departLane="best" id="truck119" type="truck_truck">
        <route edges="-430126368#1 -430126368#0 27030123#4 672784702#4 -131655873#1 -131655873#0 132236345#8 237587387#0 237587387#1 237587387#2 299532298 183462531 299532299 183752948 183462542#0 183462542#1 183462562#0 183462562#1 183462562#2 310454393 371375600#0 371375600#1 128515111 620987193#0 620987193#1 229739161#0 229739161#0-AddedOffRampEdge 229739161#1 212723116 168667916 278920581 241926086 565519143 72921505 524255618#0 524255618#1 14409243 554707179#1 454570248 454570251 454693651 454697529#0 454697529#1 454693652 454698074 424396207#0 424396207#1 424396207#2 424396207#3 27238788#0 27238788#1 27238788#2 27238788#3 -428733941 -230629149 428733944 358278706#0 358278706#1 34436958#1 420920879 358278704#1 423497710#0" />
    </vehicle>
    <vehicle depart="71.32" departLane="best" id="truck120" type="truck_truck">
        <route edges="-450680119 171848999#2 171848925#0 171848925#1 16765621#2 167131039#0 167131039#1 167131031 231404792#0 247061290#0 172297055 196799730#0 196799730#1 196799730#2 196799730#3 196799730#4 196799730#5 196799730#6 8578537#0 129439666 426510831 9931242#0 255838497#3 255838497#4 255838497#5 230637724#1 199890396#0 199890396#2 199890396#3 199890396#5 199890396#6 199890396#7 199890396#8 199890396#9 230628805#0 230628805#1 230628805#2 230628805#4 230628805#5" />
    </vehicle>
    <vehicle depart="74.29" departLane="best" id="truck125" type="truck_truck">
        <route edges="-27586532#1 -27586532#0 369907197#6 369907197#7 369907197#8 27586525 229481575#0 229481575#1 229481575#2 487911486#1 26249930 4615022#1-AddedOnRampEdge 4615022#1 4615022#1-AddedOffRampEdge 462936246 -277478967#1 -277478970#2 -277478970#1 27587531#0 27587531#1 184013932#0 184013932#1 369907195#7 369907195#8 255792502#0 401011169#2 401011169#3 439631884 369907203#0 369907203#2 369907203#3 369907203#5 369907207#0 369907207#1 369907207#4 369907207#5 369907210#1 417991507#1 236732296#0 236732296#1 128247526#2 128247526#4 38569951 318221333 172868888#0 172868864#0 -134463317#2 39048556#0 39048556#1 39048556#2 39048561#1 39048561#2 -192583208#11 -192583208#9 -192583208#8 -192583208#7 -192583208#6 -192583208#4 -192583208#3 -192583208#2 -192583208#1 192583212 -38569959#2 -38569959#1 39048475#1 39048475#2 39014088#0 39014088#1 39014087#1 -471659281" />
    </vehicle>
    <vehicle depart="74.88" departLane="best" id="truck126" type="truck_truck">
        <route edges="-560269842#1 560269841 172297666#2 -426507056 229480632#0 229480632#1 284347439#3 284347439#4 450878336 450878337#0 229480221#0 229480221#1 426510606 262851660#0 262851660#1 262851660#2 262851660#3 672491572 262851658 4534456 129439666 426510831 8578563#0 8578563#1 8090812 578287066#0 578287066#2 196799733#0 196799733#1 230628541#0 230628541#1 230628541#2 230628541#3 230628541#4 230628541#5 230628537#0 230628537#1 230628537#2 230628537#3 230628537#4 230628537#5 230628537#6 230628537#7 282974683#0 282974683#1 230628536#0 230628536#1 230628536#2 230628536#3 230628536#4 230628536#5 230628536#6 230628527#0 230628527#1 577926287#0 577926287#1 577926287#3 577926287#4 183853693#1 183853693#2 439765511 217333504 196799728 578707887#0 16653270#0 16653270#1 16653270#2 16653270#3 8579140#9 577947621#0 572095530#0" />
    </vehicle>
    <vehicle depart="75.48" departLane="best" id="truck127" type="truck_truck">
        <route edges="457093355#0 457093355#2 457093355#3 38709148#0 38709148#1 128508563#7 128508563#8 128508563#9 230398376 17446828 237048431 235497116 128519863#0 128519863#1 235497117#0 235497122 128515118#1-AddedOnRampEdge 128515118#1 128515118#2 128515110#0 128515110#1 237169411 310454389 37916642#1 37916642#2 27030034#0 27030034#1 128511295#1 128511297#0 128511297#1 299532297#0 299532297#1 299532297#2 299532297#3 299532297#4 299532297#5 299532297#6 547177363#0 547177363#1 547177363#3 547177363#4 547305685#0 547305685#1 547305685#2 547305685#3 237455937#0 237455937#1 237455937#2 39082331#11 39082331#12 39082331#13 39082331#14 56394527 241249700#0 241249700#1 645595745 645595744#0 -39120533#2 -39120533#1 465895358" />
    </vehicle>
    <vehicle depart="76.67" departLane="best" id="truck129" type="truck_truck">
        <route edges="428102023#1 428102023#2 27639628#1 369907196#11 369907196#12 369907196#13 632976624 632976617#0 632976617#1 231350459#0 231350459#1 231350459#2 231350459#3 4567097 231345867#0 231345867#1 450833653#0-AddedOnRampEdge 450833653#0 450833653#1 426504423 405498518#0 405498518#1 405498518#2 265227056#1 265227056#2 265227056#3 426505724#1 14518869 449612685 8431670#1 19796859#0 19796859#1 19796859#2 19796862#0 19796862#1 19796862#2 76695850#1 76695850#2 76695850#3 76695850#4 172744182#1 237455928#0 172745429#0 172745429#2 172745429#3 60685694#0 60685694#1 60685694#2 60685694#3 39048482#0 39048482#1 401300455#3" />
    </vehicle>
    <vehicle depart="77.85" departLane="best" id="truck131" type="truck_truck">
        <route edges="37916499 128508563#5 128508563#6 128508563#7 128508563#8 128508563#9 230398376 17446828 237048431 235497116 128519863#0 128519863#1 235497117#0 235497122 128515118#1-AddedOnRampEdge 128515118#1 128515118#2 128515110#0 128515110#1 237169411 310454389 37916642#1 37916642#2 27030034#0 27030034#1 128511295#1 128511297#0 128511297#1 299532297#0 299532297#1 299532297#2 299532297#3 299532297#4 299532297#5 299532297#6 547177363#0 547177363#1 547177363#3 547177363#4 547305685#0 547305685#1 547305685#2 547305685#3 237455937#0 237455937#1 237455937#2 39082331#11 39082331#12 39082331#13 39082331#14 56394527 241249700#0 241249700#1 645595745 645595744#0 645595744#2 -131628109#3 -131628119#0" />
    </vehicle>
    <vehicle depart="79.04" departLane="best" id="truck133" type="truck_truck">
        <route edges="38508531 234827302#0 38508532 369630801#1 369630802#0 369630802#1 369630802#2 456287379 72916500 -196799729#1 -196799729#0 -197054862 -425926837 -425926838 -425930849#1 -425930849#0 -231341699#1 -231341699#0 -425930850#0 -425930847 425930858 172433905 425930859 -425930861#0 578707887#2" />
    </vehicle>
    <vehicle depart="79.64" departLane="best" id="truck134" type="truck_truck">
        <route edges="-39048508#3 -39048508#2 39048488#1 39048488#2 39048488#3 39048489#1 39048489#2 -39048494#3 172747396#3 401300455#6 401300455#7 401300455#8 401300455#9 28807664#2 28807664#3 28807664#4 28807664#6 8431670#1 39049597#0 39049597#1 39049613 337854427 185627528 185627524#1 185627516 185627509#1 339106277 185627525 128027697#0 128027697#1 351751479 171848925#0 171848925#1 16765621#2 167131039#0 167131039#1 167131031 231404792#0 247061290#0 172297055 196799730#0 196799730#1 196799730#2 196799730#3 196799730#4 196799730#5 196799730#6 8578537#0 129439666 426510831 8578563#0 8578563#1 8090812 578287066#0 578287066#2 196799733#0 196799733#1 230628541#0 230628541#1 230628541#2 230628541#3 230628541#4 230628541#5 230628537#0 230628537#1 230628537#2 230628537#3 230628537#4 230628537#5 230628537#6 230628537#7 282974683#0 282974683#1 16257538#0 16257538#1 471622251 471622252 199918918#0 199918918#1 199918918#2 199918918#3 38630328#0 38630328#1 38630639#0 38630639#1 236120862#0 236120862#1 236120862#2 425929169#0 425929169#1 425929169#2 425929169#3 425929172#0 38631715#3 14406459#1 236120865 456288159 72921510 435978225 435973656 456291852 128519869 212723119#1 430125563 128515118#0 128515118#1-AddedOnRampEdge 128515118#1 435973648 435973649#1 435973649#2-AddedOnRampEdge 435973649#2 435973649#2-AddedOffRampEdge 128515120 -230398377 34436961 37916485#1 37916485#2 34436962 -128508551#1 -128508551#0 37916494#0 37916494#1 37916494#2 37916494#3 37916494#4 37916494#5 37916494#6 37916494#7 -37916531#1" />
    </vehicle>
    <vehicle depart="80.23" departLane="best" id="truck135" type="truck_truck">
        <route edges="-374915865 38631700#1 -577924483#0 -72614032#1 -72614032#0 -236120863#1 -199918917#2 -199918917#1 -199918917#0 15263136#0 15263136#1 15263136#2 15263136#3 15263136#4 230628542 426696447 426696446 426696449#1 426696441#1 426696452#1 426696444#0 426696444#1 359790090#0 359790090#1 426696420#1 359790122#1 231355575#5 231355575#6 301151223" />
    </vehicle>
    <vehicle depart="80.83" departLane="best" id="truck136" type="truck_truck">
        <route edges="-612083734 -39077901#0 76695773#2 76695773#3 76695773#4 171847502#0 171847502#0-AddedOffRampEdge 171847502#1 171847502#2 171847502#3 247061290#0 172297055 196799730#0 196799730#1 196799730#2 196799730#3 196799730#4 196799730#5 196799730#6 8578537#0 129439666 426510831 8578563#0 8578563#1 8090812 578287066#0 578287066#2 196799733#0 196799733#1 230628541#0 230628541#1 230628541#2 230628541#3 230628541#4 230628541#5 230628537#0 230628537#1 230628537#2 230628537#3 230628537#4 230628537#5 230628537#6 230628537#7 282974683#0 282974683#1 230628536#0 230628536#1 230628536#2 230628536#3 230628536#4 230628536#5 230628536#6 230628531#0 230628531#1 230628531#2 241318602#0 241318602#1 241318602#2 241318602#3 230628520#0 230628520#1 261785599#0 261785599#1 261785599#2 261785599#3 230628521#0 230628521#1 230628521#2 230628521#3 231390618#0 231390618#1 231390618#2 231390618#3 231390618#4 577924801 28725762 176499525 241249712#8 241249712#10 427400766#1 427400766#3 427400867#2 -427400930 -363528979#1 -363528979#0 -38738605#6 -38738605#5 -38738605#4 -38738605#2 -38738605#1 27030148#1 27030148#2 211455040 244936647#0 244936647#1 -27030143#4 -27030143#3 -27030143#2 -27030143#1 -27030143#0 -27029997#9 -27029997#8 278992347 -27030002#1 -27030002#0 -27030107 -278992349 278992350 278992351#0 39081863#1 547305685#0 547305685#1 547305685#2 547305685#3 237455925#0 237455925#2 39081891#0 39081891#1 131655878 39081885 39081886#0 131655876 37808165#2" />
    </vehicle>
    <vehicle depart="86.17" departLane="best" id="truck145" type="truck_truck">
        <route edges="230398376 17446828 237048431 235497116 128519863#0 128519863#1 235497117#0 235497122 128515118#1-AddedOnRampEdge 128515118#1 128515118#2 128515110#0 128515110#1 237169411 310454389 37916642#1 37916642#2 37916655#0 37916655#1 157187728 183752953 385517862 -237587387#2 -237587387#1 -131655871" />
    </vehicle>
    <vehicle depart="86.77" departLane="best" id="truck146" type="truck_truck">
        <route edges="-27611587 330594185 572095530#3 231715377 231715374#0 231715374#0-AddedOffRampEdge 231715374#1 231715370 231715375#0 231715375#1 38631708 72767342-AddedOnRampEdge 72767342 38631710 72614035#0 231713631#0 425929162#0 425929162#0-AddedOffRampEdge 425929162#1 425929162#2 278916131 278916129#1 278916129#2 278916129#3 38508505 46892974#0 46892974#1 46892974#2" />
    </vehicle>
    <vehicle depart="87.36" departLane="best" id="truck147" type="truck_truck">
        <route edges="498338005 241249712#1 241249712#4 241249712#5 62268206 211456024 211456026#0 577924800#2 577924800#4 28725760#0 28725760#1 28725760#2 241318604#0 241318604#1 230628539#0 230628539#1 230628539#2 231341013#0 231341013#1 231341013#2 231341013#3 230628530#0 230628530#1 230628530#2 230628530#3 230628530#4 635399925 230628530#7 230628533#0 230628533#1 230628533#2 230628533#3 230628533#4 423987651#0 423987651#1 423987651#2 423987650#0 423987650#1 230628517#0 230628517#1 230628517#2 230628517#3 230628517#4 230628517#6 230628517#7 230628534#1 230628534#2 196799732 230783567#1 230783567#2 230783567#3 186496572#0 186496572#1 186496572#2 186496572#3 186496572#4 407769038#2 9931243 262851659 8148347 513802091 262851657#0 262851657#1 262851657#2 262851657#3 262851657#4 423517227#1 423517227#2 423517339#0 614007812 284347438#0 284347438#1 450833652#0 450833652#1 231345864 231345866 451601406 329262587#0 329262587#1 329261736#1 280118519#1 280118519#2 280118519#3 280118519#6 280118519#7 280118519#8" />
    </vehicle>
    <vehicle depart="91.52" departLane="best" id="truck154" type="truck_truck">
        <route edges="202867531#0 38630338#0 38630338#1 269678077#0 269678077#1 269678077#2 269678077#3 269678077#4 269678077#5 269678077#6 124962720 661786907 661786906#0 661786906#1 661786906#2 661786906#3 661786906#4 124962724#0 124962724#1 255845158#0 27570521#0 27570521#1 27570521#2 27570521#3 27570521#4 427018862#0 427018862#1 427018862#2 427018862#3 -255905293#1 436488790 231350474#1 4567096 234731992#0 321139490#0 4567105 8547798#0 401762565#0 401762565#1 -325044600#0 211456025 460071969 638729322#0 638729322#2 638729322#3 638729322#4 638729322#5 638729322#6 638729322#7 638729322#8 638729322#9 638729322#10 638729322#11 577924801 28725762 176499525 231281377#0 38738786 427400671#6 27030066#0 27030066#1 27030066#2 27030066#3 27030066#4 27030066#5 27030066#6 27030066#7 27030066#8 27030066#9 211061213#0 211061213#1 211061210#0 211061210#1-AddedOnRampEdge 211061210#1 39081434#0 39081434#1 39081434#2 39081434#3 39081434#4 -128519864 79669498#0 79669498#1 128511291#0 128511291#1 128511291#2 620987193#0 620987193#1 128515118#2 128515118#3 128511288#1 37916557#2" />
    </vehicle>
    <vehicle depart="93.31" departLane="best" id="truck157" type="truck_truck">