<routes xmlns:xsi="http://www.w3.org/2001/XMLSchema-instance" xsi:noNamespaceSchemaLocation="http://sumo.dlr.de/xsd/routes_file.xsd">
    <vType id="moto_motorcycle" vClass="motorcycle">
    </vType>
    <trip depart="1.27" departLane="best" from="-424630814#2" id="moto3" to="424630809#1" type="moto_motorcycle" />
    <trip depart="3.40" departLane="best" from="-172308673#3" id="moto8" to="556750747#6" type="moto_motorcycle" />
    <trip depart="3.82" departLane="best" from="229480982#4" id="moto9" to="27644477#2" type="moto_motorcycle" />
    <trip depart="4.25" departLane="best" from="231404792#0" id="moto10" to="427253359#2" type="moto_motorcycle" />
    <trip depart="4.67" departLane="best" from="8579908" id="moto11" to="435973651#1-AddedOffRampEdge" type="moto_motorcycle" />
    <trip depart="7.64" departLane="best" from="323053803" id="moto18" to="27639629#1" type="moto_motorcycle" />
    <trip depart="8.07" departLane="best" from="39078043#1" id="moto19" to="15808057#0" type="moto_motorcycle" />
    <trip depart="8.49" departLane="best" from="124962725#1" id="moto20" to="231350478#0" type="moto_motorcycle" />
    <trip depart="8.91" departLane="best" from="211556987#6" id="moto21" to="369467063#0" type="moto_motorcycle" />
    <trip depart="9.76" departLane="best" from="230395575#2" id="moto23" to="-467061961" type="moto_motorcycle" />
    <trip depart="13.58" departLane="best" from="-430127811" id="moto32" to="430115790" type="moto_motorcycle" />
    <trip depart="14.01" departLane="best" from="133333369#0" id="moto33" to="465984315#2" type="moto_motorcycle" />
    <trip depart="14.43" departLane="best" from="39046004#0" id="moto34" to="39046005#5" type="moto_motorcycle" />
    <trip depart="14.86" departLane="best" from="27668372#0" id="moto35" to="261785599#1" type="moto_motorcycle" />
    <trip depart="16.13" departLane="best" from="59515637#0" id="moto38" to="265227053#7" type="moto_motorcycle" />
    <trip depart="20.38" departLane="best" from="-430128408" id="moto48" to="-251629009#1" type="moto_motorcycle" />
    <trip depart="22.07" departLane="best" from="430128415#0" id="moto52" to="245893027" type="moto_motorcycle" />
    <trip depart="25.89" departLane="best" from="424211549#1" id="moto61" to="426510606" type="moto_motorcycle" />
    <trip depart="26.32" departLane="best" from="132236347#2" id="moto62" to="377396455#1" type="moto_motorcycle" />
    <trip depart="26.74" departLane="best" from="-27030032#0" id="moto63" to="-278992352#3" type="moto_motorcycle" />
    <trip depart="29.29" departLane="best" from="-37909827#3" id="moto69" to="136048535" type="moto_motorcycle" />
    <trip depart="30.14" departLane="best" from="211061213#0" id="moto71" to="39117744#5" type="moto_motorcycle" />
    <trip depart="31.41" departLane="best" from="56394526#2" id="moto74" to="38738777#6" type="moto_motorcycle" />
    <trip depart="32.69" departLane="best" from="587922690#20" id="moto77" to="426505724#1" type="moto_motorcycle" />
    <trip depart="33.11" departLane="best" from="39014083" id="moto78" to="-172747396#1" type="moto_motorcycle" />
    <trip depart="37.36" departLane="best" from="-430128411" id="moto88" to="-128508551#1" type="moto_motorcycle" />
    <trip depart="39.05" departLane="best" from="426607367" id="moto92" to="517698789" type="moto_motorcycle" />
    <trip depart="41.18" departLane="best" from="171847607#1" id="moto97" to="38360276#4" type="moto_motorcycle" />
    <trip depart="47.54" departLane="best" from="277478974#0" id="moto112" to="185783795#5" type="moto_motorcycle" />
    <trip depart="47.97" departLane="best" from="-427243046" id="moto113" to="38738764#0" type="moto_motorcycle" />
    <trip depart="48.39" departLane="best" from="39046429" id="moto114" to="39046000" type="moto_motorcycle" />
    <trip depart="48.82" departLane="best" from="407757111#4" id="moto115" to="426603437#8" type="moto_motorcycle" />
    <trip depart="49.67" departLane="best" from="427253372" id="moto117" to="205998238" type="moto_motorcycle" />
    <trip depart="50.52" departLane="best" from="-255818924#5" id="moto119" to="188303695#1" type="moto_motorcycle" />
    <trip depart="52.64" departLane="best" from="127683181" id="moto124" to="-39053414" type="moto_motorcycle" />
    <trip depart="53.49" departLane="best" from="124962748#3" id="moto126" to="27639629#0" type="moto_motorcycle" />
    <trip depart="54.34" departLane="best" from="430128040" id="moto128" to="-244936681" type="moto_motorcycle" />
    <trip depart="55.19" departLane="best" from="39081849#2" id="moto130" to="-547305685#3" type="moto_motorcycle" />
    <trip depart="57.73" departLane="best" from="-34439046#0" id="moto136" to="16238438#0" type="moto_motorcycle" />
    <trip depart="58.58" departLane="best" from="39046616#0" id="moto138" to="556750747#4" type="moto_motorcycle" />
    <trip depart="59.01" departLane="best" from="312280064#0" id="moto139" to="524255618#0" type="moto_motorcycle" />
    <trip depart="59.43" departLane="best" from="39081434#2" id="moto140" to="424630814#1" type="moto_motorcycle" />
    <trip depart="60.70" departLane="best" from="211455038" id="moto143" to="151515563#2" type="moto_motorcycle" />
    <trip depart="61.13" departLane="best" from="-430129437#1" id="moto144" to="128515110#1" type="moto_motorcycle" />
    <trip depart="62.40" departLane="best" from="490216505" id="moto147" to="424211549#3" type="moto_motorcycle" />
    <trip depart="63.68" departLane="best" from="196799730#3" id="moto150" to="-39077901#0" type="moto_motorcycle" />
    <trip depart="64.10" departLane="best" from="-53801348" id="moto151" to="27030152#1" type="moto_motorcycle" />
    <trip depart="65.37" departLane="best" from="-39120532#2" id="moto154" to="352366651#1" type="moto_motorcycle" />
    <trip depart="65.80" departLane="best" from="310454388#0" id="moto155" to="-131628115#0" type="moto_motorcycle" />
    <trip depart="66.22" departLane="best" from="128515109#1" id="moto156" to="431548669" type="moto_motorcycle" />
    <trip depart="67.92" departLane="best" from="157188563#2" id="moto160" to="-430118181#0" type="moto_motorcycle" />
    <trip depart="68.35" departLane="best" from="-424212159" id="moto161" to="205861332" type="moto_motorcycle" />
    <trip depart="70.04" departLane="best" from="-672784703#3" id="moto165" to="-211455035#4" type="moto_motorcycle" />
    <trip depart="72.59" departLane="best" from="-430128413" id="moto171" to="245893027" type="moto_motorcycle" />
    <trip depart="73.86" departLane="best" from="195270960#0" id="moto174" to="407753019#2" type="moto_motorcycle" />
    <trip depart="76.84" departLane="best" from="37916629#1" id="moto181" to="547177360#1" type="moto_motorcycle" />
    <trip depart="79.38" departLane="best" from="426505734#4" id="moto187" to="329262587#0" type="moto_motorcycle" />
    <trip depart="80.66" departLane="best" from="171847607#0" id="moto190" to="597462033" type="moto_motorcycle" />
    <trip depart="81.93" departLane="best" from="-39014080#2" id="moto193" to="39048531#2" type="moto_motorcycle" />
    <trip depart="82.78" departLane="best" from="27029997#1" id="moto195" to="128194053#3" type="moto_motorcycle" />
    <trip depart="87.45" departLane="best" from="-27639647#0" id="moto206" to="-202867536" type="moto_motorcycle" />
    <trip depart="89.57" departLane="best" from="-27030089#7" id="moto211" to="38738605#5" type="moto_motorcycle" />
    <trip depart="90.00" departLane="best" from="646564634" id="moto212" to="27639666" type="moto_motorcycle" />
    <trip depart="95.09" departLane="best" from="450833653#1" id="moto224" to="-436325258" type="moto_motorcycle" />
    <trip depart="95.51" departLane="best" from="-430126494#1" id="moto225" to="27030148#2" type="moto_motorcycle" />
    <trip depart="96.79" departLane="best" from="141294961#0" id="moto228" to="430127947" type="moto_motorcycle" />
    <trip depart="100.18" departLane="best" from="8579426" id="moto236" to="72921505" type="moto_motorcycle" />
    <trip depart="103.15" departLane="best" from="-430119365" id="moto243" to="245893027" type="moto_motorcycle" />
    <trip depart="103.58" departLane="best" from="-448213346" id="moto244" to="39117764#0" type="moto_motorcycle" />
    <trip depart="104.85" departLane="best" from="425942439#0" id="moto247" to="-427243088#2" type="moto_motorcycle" />
    <trip depart="105.70" departLane="best" from="-547177360#0" id="moto249" to="427400778#1" type="moto_motorcycle" />
    <trip depart="106.98" departLane="best" from="28807488#0" id="moto252" to="450506569" type="moto_motorcycle" />
    <trip depart="108.25" departLane="best" from="427018761#5" id="moto255" to="370514752#3" type="moto_motorcycle" />
    <trip depart="110.37" departLane="best" from="425923715#0" id="moto260" to="255838497#4" type="moto_motorcycle" />
    <trip depart="114.62" departLane="best" from="425838713" id="moto270" to="22999960#1" type="moto_motorcycle" />
    <trip depart="116.74" departLane="best" from="230784087#4" id="moto275" to="-426507056" type="moto_motorcycle" />
    <trip depart="118.01" departLane="best" from="27474563#1" id="moto278" to="239019906" type="moto_motorcycle" />
    <trip depart="121.41" departLane="best" from="430118179" id="moto286" to="132236345#3" type="moto_motorcycle" />
    <trip depart="123.96" departLane="best" from="39053416#0" id="moto292" to="-438225725" type="moto_motorcycle" />
    <trip depart="126.08" departLane="best" from="-39051473#0" id="moto297" to="312295510#2" type="moto_motorcycle" />
    <trip depart="129.47" departLane="best" from="-37916375#1" id="moto305" to="8103465#1" type="moto_motorcycle" />
    <trip depart="130.32" departLane="best" from="-244936659" id="moto307" to="-27029997#7" type="moto_motorcycle" />
    <trip depart="131.60" departLane="best" from="153916350" id="moto310" to="191510470#1" type="moto_motorcycle" />
    <trip depart="132.87" departLane="best" from="-27030089#3" id="moto313" to="430119362" type="moto_motorcycle" />
    <trip depart="136.27" departLane="best" from="454697529#1" id="moto321" to="576932607#1" type="moto_motorcycle" />
    <trip depart="142.21" departLane="best" from="448209065#0" id="moto335" to="-427400670#0" type="moto_motorcycle" />
    <trip depart="142.63" departLane="best" from="277478969#1" id="moto336" to="369907196#0" type="moto_motorcycle" />
    <trip depart="143.91" departLane="best" from="128519867#0" id="moto339" to="424630828#0" type="moto_motorcycle" />
    <trip depart="146.88" departLane="best" from="396622998" id="moto346" to="37538122" type="moto_motorcycle" />
    <trip depart="149.43" departLane="best" from="196799741" id="moto352" to="426696421#3" type="moto_motorcycle" />
    <trip depart="149.85" departLane="best" from="-19796858#0" id="moto353" to="-39056475#0" type="moto_motorcycle" />
    <trip depart="153.25" departLane="best" from="195270960#2" id="moto361" to="172309984" type="moto_motorcycle" />
    <trip depart="156.22" departLane="best" from="212723117#3" id="moto368" to="8579426" type="moto_motorcycle" />
    <trip depart="158.76" departLane="best" from="199918921" id="moto374" to="-430127813#0" type="moto_motorcycle" />
    <trip depart="160.46" departLane="best" from="373580562#0" id="moto378" to="27639613#3" type="moto_motorcycle" />
    <trip depart="163.86" departLane="best" from="37916365" id="moto386" to="25953773#1" type="moto_motorcycle" />
    <trip depart="164.71" departLane="best" from="-39014081#1" id="moto388" to="587918133" type="moto_motorcycle" />
    <trip depart="168.95" departLane="best" from="230397722" id="moto398" to="-128511300" type="moto_motorcycle" />
    <trip depart="169.38" departLane="best" from="-39051672#0" id="moto399" to="-438225725" type="moto_motorcycle" />
    <trip depart="170.23" departLane="best" from="244936702#2" id="moto401" to="27030103" type="moto_motorcycle" />
    <trip depart="170.65" departLane="best" from="39120541#2" id="moto402" to="-672784702#0" type="moto_motorcycle" />
    <trip depart="171.08" departLane="best" from="-211061213#1" id="moto403" to="430127811" type="moto_motorcycle" />
    <trip depart="172.77" departLane="best" from="134462238#0" id="moto407" to="-39053436#0" type="moto_motorcycle" />
    <trip depart="173.62" departLane="best" from="191510470#0" id="moto409" to="38630330#2" type="moto_motorcycle" />
    <trip depart="174.05" departLane="best" from="27691635#0" id="moto410" to="8547727#1" type="moto_motorcycle" />
    <trip depart="175.75" departLane="best" from="-76695774#1" id="moto414" to="39077896#2" type="moto_motorcycle" />
    <trip depart="176.59" departLane="best" from="-430128414" id="moto416" to="-37916536#0" type="moto_motorcycle" />
    <trip depart="178.29" departLane="best" from="38630646" id="moto420" to="8578569#1" type="moto_motorcycle" />
    <trip depart="179.57" departLane="best" from="-39049597#1" id="moto423" to="401300455#1" type="moto_motorcycle" />
    <trip depart="180.41" departLane="best" from="-172868866" id="moto425" to="35472702" type="moto_motorcycle" />
    <trip depart="181.69" departLane="best" from="-39014082#0" id="moto428" to="38569959#1" type="moto_motorcycle" />
    <trip depart="182.54" departLane="best" from="684436583#0" id="moto430" to="228351158#1" type="moto_motorcycle" />
    <trip depart="183.81" departLane="best" from="-27639585#0" id="moto433" to="436333187" type="moto_motorcycle" />
    <trip depart="184.24" departLane="best" from="151882388#0" id="moto434" to="-33899996#2" type="moto_motorcycle" />
    <trip depart="184.66" departLane="best" from="-38738610#2" id="moto435" to="27030074#3" type="moto_motorcycle" />
    <trip depart="185.51" departLane="best" from="-230593245" id="moto437" to="230628807#1" type="moto_motorcycle" />
    <trip depart="185.93" departLane="best" from="-39117742#1" id="moto438" to="-430128618" type="moto_motorcycle" />
    <trip depart="186.78" departLane="best" from="211061214" id="moto440" to="37916649" type="moto_motorcycle" />
    <trip depart="187.21" departLane="best" from="-278992351#1" id="moto441" to="-237455923#0" type="moto_motorcycle" />
    <trip depart="188.06" departLane="best" from="16257975#3" id="moto443" to="16257975#4" type="moto_motorcycle" />
    <trip depart="188.48" departLane="best" from="72767342-AddedOnRampEdge" id="moto444" to="-425925625" type="moto_motorcycle" />
    <trip depart="188.90" departLane="best" from="16767770#0" id="moto445" to="-27639627#3" type="moto_motorcycle" />
    <trip depart="189.75" departLane="best" from="-27030139#1" id="moto447" to="-27030074#0" type="moto_motorcycle" />
    <trip depart="191.45" departLane="best" from="-425945259" id="moto451" to="27692470" type="moto_motorcycle" />
    <trip depart="191.88" departLane="best" from="299532297#0" id="moto452" to="39081428#2" type="moto_motorcycle" />
    <trip depart="192.30" departLane="best" from="-519183088" id="moto453" to="-27692271#1" type="moto_motorcycle" />
    <trip depart="197.39" departLane="best" from="430126619#1" id="moto465" to="620987193#1" type="moto_motorcycle" />
    <trip depart="197.82" departLane="best" from="369907216#0" id="moto466" to="172297063#4" type="moto_motorcycle" />
    <trip depart="200.37" departLane="best" from="14518869" id="moto472" to="28807588#1" type="moto_motorcycle" />
    <trip depart="201.22" departLane="best" from="8579414#0" id="moto474" to="430124768#1" type="moto_motorcycle" />
    <trip depart="203.34" departLane="best" from="27030125#0" id="moto479" to="-39120549#1" type="moto_motorcycle" />
    <trip depart="204.61" departLane="best" from="27691870#0" id="moto482" to="426605956#0" type="moto_motorcycle" />
    <trip depart="205.89" departLane="best" from="524259839" id="moto485" to="-211455035#1" type="moto_motorcycle" />
    <trip depart="207.16" departLane="best" from="-504630216" id="moto488" to="-426505728#3" type="moto_motorcycle" />
    <trip depart="208.43" departLane="best" from="108358684" id="moto491" to="454562734" type="moto_motorcycle" />
    <trip depart="208.86" departLane="best" from="454557952" id="moto492" to="425929162#0-AddedOffRampEdge" type="moto_motorcycle" />
    <trip depart="210.13" departLane="best" from="427243056#0" id="moto495" to="33899996#1" type="moto_motorcycle" />
    <trip depart="211.40" departLane="best" from="425691399" id="moto498" to="447007235#0" type="moto_motorcycle" />
    <trip depart="211.83" departLane="best" from="35472703" id="moto499" to="39053416#3" type="moto_motorcycle" />
    <trip depart="214.38" departLane="best" from="-75329374" id="moto505" to="16765274#3" type="moto_motorcycle" />
    <trip depart="219.47" departLane="best" from="128511294#4" id="moto517" to="128508557" type="moto_motorcycle" />
    <trip depart="220.32" departLane="best" from="-39056449" id="moto519" to="38360276#5" type="moto_motorcycle" />
    <trip depart="220.74" departLane="best" from="-230784029#2" id="moto520" to="424211905#3" type="moto_motorcycle" />
    <trip depart="222.87" departLane="best" from="-38841784#1" id="moto525" to="-194545764" type="moto_motorcycle" />
    <trip depart="223.71" departLane="best" from="-59515646#4" id="moto527" to="265227053#14" type="moto_motorcycle" />
    <trip depart="224.14" departLane="best" from="584764530#0" id="moto528" to="-27639632#0" type="moto_motorcycle" />
    <trip depart="224.56" departLane="best" from="-672784702#2" id="moto529" to="-37808173#2" type="moto_motorcycle" />
    <trip depart="225.41" departLane="best" from="425838710" id="moto531" to="419513797#1" type="moto_motorcycle" />
    <trip depart="226.69" departLane="best" from="-431550227#1" id="moto534" to="14517187#0" type="moto_motorcycle" />
    <trip depart="227.53" departLane="best" from="39081434#4" id="moto536" to="430119365" type="moto_motorcycle" />
    <trip depart="228.38" departLane="best" from="237455934#2" id="moto538" to="-78171844#1" type="moto_motorcycle" />
    <trip depart="228.81" departLane="best" from="27639613#3" id="moto539" to="231350459#2" type="moto_motorcycle" />
    <trip depart="229.66" departLane="best" from="231715373#0" id="moto541" to="-425942451#0" type="moto_motorcycle" />
    <trip depart="231.78" departLane="best" from="141294961#4" id="moto546" to="-172728802#2" type="moto_motorcycle" />
    <trip depart="233.90" departLane="best" from="172297063#4" id="moto551" to="369907210#1" type="moto_motorcycle" />
    <trip depart="235.18" departLane="best" from="278992347" id="moto554" to="-430128047#0" type="moto_motorcycle" />
    <trip depart="238.15" departLane="best" from="172743779" id="moto561" to="39048489#2" type="moto_motorcycle" />
    <trip depart="238.57" departLane="best" from="-278992351#1" id="moto562" to="211455037#1" type="moto_motorcycle" />
    <trip depart="239.42" departLane="best" from="-27030148#1" id="moto564" to="233557733" type="moto_motorcycle" />
    <trip depart="242.82" departLane="best" from="-424426364" id="moto572" to="184855991#1" type="moto_motorcycle" />
    <trip depart="245.36" departLane="best" from="-430127943" id="moto578" to="27030074#1" type="moto_motorcycle" />
    <trip depart="247.49" departLane="best" from="-27692271#0" id="moto583" to="-679182701#0" type="moto_motorcycle" />
    <trip depart="247.91" departLane="best" from="-622489239" id="moto584" to="-171847846#3" type="moto_motorcycle" />
    <trip depart="249.61" departLane="best" from="-171847846#0" id="moto588" to="238318429#0" type="moto_motorcycle" />
    <trip depart="250.03" departLane="best" from="-27668496#1" id="moto589" to="524259839" type="moto_motorcycle" />
    <trip depart="250.46" departLane="best" from="212353005#0" id="moto590" to="131655866" type="moto_motorcycle" />
    <trip depart="251.73" departLane="best" from="-39051668#2" id="moto593" to="-76695850#2" type="moto_motorcycle" />
    <trip depart="253.85" departLane="best" from="15069427#0" id="moto598" to="37909818#3" type="moto_motorcycle" />
    <trip depart="254.28" departLane="best" from="61819124#1" id="moto599" to="277135943" type="moto_motorcycle" />
    <trip depart="257.25" departLane="best" from="445750758#4" id="moto606" to="132236347#4" type="moto_motorcycle" />
    <trip depart="257.67" departLane="best" from="39081857#0" id="moto607" to="131628124" type="moto_motorcycle" />
    <trip depart="258.52" departLane="best" from="-184044492" id="moto609" to="589515206#5" type="moto_motorcycle" />
    <trip depart="259.80" departLane="best" from="334434102#1" id="moto612" to="425849973" type="moto_motorcycle" />
    <trip depart="261.50" departLane="best" from="-278992347" id="moto616" to="377396455#1" type="moto_motorcycle" />
    <trip depart="261.92" departLane="best" from="262851657#2" id="moto617" to="230637724#1" type="moto_motorcycle" />
    <trip depart="265.32" departLane="best" from="172746116#0" id="moto625" to="-172868864#1" type="moto_motorcycle" />
    <trip depart="265.74" departLane="best" from="27644492#0" id="moto626" to="277478965#2" type="moto_motorcycle" />
    <trip depart="268.29" departLane="best" from="-431548662" id="moto632" to="431548669" type="moto_motorcycle" />
    <trip depart="269.14" departLane="best" from="8579904#1" id="moto634" to="46892969#2" type="moto_motorcycle" />
    <trip depart="271.68" departLane="best" from="-426600403#1" id="moto640" to="487613356#0" type="moto_motorcycle" />
    <trip depart="272.11" departLane="best" from="-427400778#2" id="moto641" to="132236348" type="moto_motorcycle" />
    <trip depart="273.81" departLane="best" from="186496569#0" id="moto645" to="184765910" type="moto_motorcycle" />
    <trip depart="276.35" departLane="best" from="445750758#1" id="moto651" to="-248091973" type="moto_motorcycle" />
    <trip depart="278.05" departLane="best" from="645595744#2" id="moto655" to="310454397" type="moto_motorcycle" />
    <trip depart="281.45" departLane="best" from="284347439#3" id="moto663" to="426506692#0" type="moto_motorcycle" />
    <trip depart="281.87" departLane="best" from="465895356#0" id="moto664" to="-239019903#1" type="moto_motorcycle" />
    <trip depart="286.12" departLane="best" from="27030027#6" id="moto674" to="-310454388#0" type="moto_motorcycle" />
    <trip depart="291.21" departLane="best" from="471338742#3" id="moto686" to="-39053409" type="moto_motorcycle" />
    <trip depart="293.33" departLane="best" from="38841784#5" id="moto691" to="-438225728" type="moto_motorcycle" />
    <trip depart="294.61" departLane="best" from="231345869#2" id="moto694" to="426511342" type="moto_motorcycle" />
    <trip depart="297.58" departLane="best" from="-39117760#0" id="moto701" to="27029997#7" type="moto_motorcycle" />
    <trip depart="299.70" departLane="best" from="-401300455#5" id="moto706" to="-401300455#7" type="moto_motorcycle" />
    <trip depart="300.55" departLane="best" from="38738777#6" id="moto708" to="430128619" type="moto_motorcycle" />
    <trip depart="302.25" departLane="best" from="318221356#1" id="moto712" to="635705576" type="moto_motorcycle" />
    <trip depart="302.67" departLane="best" from="-128511297#1" id="moto713" to="27030012#1" type="moto_motorcycle" />
    <trip depart="305.64" departLane="best" from="27030031#2" id="moto720" to="310454393" type="moto_motorcycle" />
    <trip depart="306.07" departLane="best" from="-427400680" id="moto721" to="38738777#2" type="moto_motorcycle" />
    <trip depart="307.77" departLane="best" from="437233646" id="moto725" to="-238318428#5" type="moto_motorcycle" />
    <trip depart="308.62" departLane="best" from="134462236#1" id="moto727" to="231345865" type="moto_motorcycle" />
    <trip depart="309.04" departLane="best" from="-587918131#1" id="moto728" to="-76695850#3" type="moto_motorcycle" />
    <trip depart="310.31" departLane="best" from="-425930861#1" id="moto731" to="426696421#3" type="moto_motorcycle" />
    <trip depart="311.59" departLane="best" from="-330594187#1" id="moto734" to="123103598#1" type="moto_motorcycle" />
    <trip depart="314.56" departLane="best" from="424211755#2" id="moto741" to="426511384#0" type="moto_motorcycle" />
    <trip depart="316.26" departLane="best" from="430118176#0" id="moto745" to="-430127944" type="moto_motorcycle" />
    <trip depart="318.80" departLane="best" from="256507154" id="moto751" to="-128511286" type="moto_motorcycle" />
    <trip depart="319.65" departLane="best" from="185015049#1" id="moto753" to="-557392497#0" type="moto_motorcycle" />
    <trip depart="322.20" departLane="best" from="282974683#0" id="moto759" to="38631710" type="moto_motorcycle" />
    <trip depart="324.32" departLane="best" from="33968289" id="moto764" to="8090811#0" type="moto_motorcycle" />
    <trip depart="324.75" departLane="best" from="51835022#0" id="moto765" to="425691410" type="moto_motorcycle" />
    <trip depart="325.17" departLane="best" from="8579181#2" id="moto766" to="369630801#1" type="moto_motorcycle" />
    <trip depart="325.60" departLane="best" from="37916388#1" id="moto767" to="431548662" type="moto_motorcycle" />
    <trip depart="326.02" departLane="best" from="471659281" id="moto768" to="39014081#0" type="moto_motorcycle" />
    <trip depart="326.44" departLane="best" from="-431546514" id="moto769" to="37916388#1" type="moto_motorcycle" />
    <trip depart="326.87" departLane="best" from="426605956#0" id="moto770" to="427243116#1" type="moto_motorcycle" />
    <trip depart="331.54" departLane="best" from="-229082106" id="moto781" to="39077896#1" type="moto_motorcycle" />
    <trip depart="331.96" departLane="best" from="-425927631" id="moto782" to="425929196#1" type="moto_motorcycle" />
    <trip depart="333.24" departLane="best" from="-359790125#3" id="moto785" to="231345868" type="moto_motorcycle" />
    <trip depart="333.66" departLane="best" from="424389521#2" id="moto786" to="424389523#0" type="moto_motorcycle" />
    <trip depart="334.09" departLane="best" from="626503763" id="moto787" to="329429505#1" type="moto_motorcycle" />
    <trip depart="335.78" departLane="best" from="-72614032#1" id="moto791" to="-425934225" type="moto_motorcycle" />
    <trip depart="336.21" departLane="best" from="454570251" id="moto792" to="46927928#1" type="moto_motorcycle" />
    <trip depart="337.06" departLane="best" from="-426603442#1" id="moto794" to="-337865808#0" type="moto_motorcycle" />
    <trip depart="338.33" departLane="best" from="679184992#0" id="moto797" to="634284802#0" type="moto_motorcycle" />
    <trip depart="339.18" departLane="best" from="37916343#0" id="moto799" to="410081054#0" type="moto_motorcycle" />
    <trip depart="340.88" departLane="best" from="-184006427" id="moto803" to="16257487#2" type="moto_motorcycle" />
    <trip depart="341.73" departLane="best" from="231350480#2" id="moto805" to="39051476#1" type="moto_motorcycle" />
    <trip depart="346.40" departLane="best" from="427253359#1" id="moto816" to="519598764#1" type="moto_motorcycle" />
    <trip depart="349.37" departLane="best" from="423987908#1" id="moto823" to="351360736" type="moto_motorcycle" />
    <trip depart="351.49" departLane="best" from="154421014#0" id="moto828" to="426505732#1" type="moto_motorcycle" />
    <trip depart="354.46" departLane="best" from="37909844#1" id="moto835" to="15808108#2" type="moto_motorcycle" />
    <trip depart="354.89" departLane="best" from="27667920#0" id="moto836" to="-427243116#0" type="moto_motorcycle" />
    <trip depart="355.74" departLane="best" from="211556977" id="moto838" to="46892381#2" type="moto_motorcycle" />
    <trip depart="357.43" departLane="best" from="230628530#5" id="moto842" to="426696428#3" type="moto_motorcycle" />
    <trip depart="360.40" departLane="best" from="-424630837#0" id="moto849" to="-8579169#3" type="moto_motorcycle" />
    <trip depart="360.83" departLane="best" from="-472258017" id="moto850" to="237455898#8" type="moto_motorcycle" />
    <trip depart="361.25" departLane="best" from="-438225729#1" id="moto851" to="37538109#1" type="moto_motorcycle" />
    <trip depart="365.07" departLane="best" from="-27639581#1" id="moto860" to="-16326412#2" type="moto_motorcycle" />
    <trip depart="365.92" departLane="best" from="-38841784#2" id="moto862" to="587918131#1" type="moto_motorcycle" />
    <trip depart="366.35" departLane="best" from="-39051671#0" id="moto863" to="587918116#3" type="moto_motorcycle" />
    <trip depart="370.17" departLane="best" from="-124962747#2" id="moto872" to="-27639623#2" type="moto_motorcycle" />
    <trip depart="370.59" departLane="best" from="-37909827#1" id="moto873" to="-469728295" type="moto_motorcycle" />
    <trip depart="371.02" departLane="best" from="-557392497#1" id="moto874" to="632976617#0" type="moto_motorcycle" />
    <trip depart="374.84" departLane="best" from="-241249719" id="moto883" to="8579140#2" type="moto_motorcycle" />
    <trip depart="376.96" departLane="best" from="-430126367" id="moto888" to="-237455921" type="moto_motorcycle" />
    <trip depart="377.39" departLane="best" from="-310454386" id="moto889" to="183489045#3" type="moto_motorcycle" />
    <trip depart="378.23" departLane="best" from="-39117758#3" id="moto891" to="33899996#3" type="moto_motorcycle" />
    <trip depart="378.66" departLane="best" from="277478974#0" id="moto892" to="487911486#13" type="moto_motorcycle" />
    <trip depart="382.90" departLane="best" from="325044599#2" id="moto902" to="-125451142#1" type="moto_motorcycle" />
    <trip depart="385.03" departLane="best" from="39117733#3" id="moto907" to="427400793#2" type="moto_motorcycle" />
    <trip depart="385.88" departLane="best" from="27639673" id="moto909" to="426504881" type="moto_motorcycle" />
    <trip depart="386.30" departLane="best" from="237455937#4" id="moto910" to="27030026#1" type="moto_motorcycle" />
    <trip depart="387.15" departLane="best" from="130808660#2" id="moto912" to="-430118181#0" type="moto_motorcycle" />
    <trip depart="390.12" departLane="best" from="-518948621" id="moto919" to="237587397#1" type="moto_motorcycle" />