<?xml version="1.0" encoding="UTF-8"?>
<!-- generated on 2019-05-01 21:30:21.716859 by $Id$ via randomTrips.py
  options: 
-->
<routes xmlns:xsi="http://www.w3.org/2001/XMLSchema-instance" xsi:noNamespaceSchemaLocation="http://sumo.dlr.de/xsd/routes_file.xsd">
    <vType id="moto_motorcycle" vClass="motorcycle">
    </vType>
    <trip id="moto0" depart="0.00" departLane="best" from="421755067#0" to="626315789#2" type="moto_motorcycle"/>
    <trip id="moto1" depart="0.68" departLane="best" from="451910413#0" to="221585908#5" type="moto_motorcycle"/>
    <trip id="moto2" depart="1.36" departLane="best" from="-232270198#0" to="239626764#1" type="moto_motorcycle"/>
    <trip id="moto3" depart="2.05" departLane="best" from="-206610786#13" to="5674502#3" type="moto_motorcycle"/>
    <trip id="moto4" depart="2.73" departLane="best" from="5679904#5" to="221585908#5" type="moto_motorcycle"/>
    <trip id="moto5" depart="3.41" departLane="best" from="5680024#12" to="5678784#10" type="moto_motorcycle"/>
    <trip id="moto6" depart="4.09" departLane="best" from="-37793000#5" to="420346490#2" type="moto_motorcycle"/>
    <trip id="moto7" depart="4.78" departLane="best" from="-587067526#0" to="5680880#3" type="moto_motorcycle"/>
    <trip id="moto9" depart="6.14" departLane="best" from="37523532#0" to="5677585#0" type="moto_motorcycle"/>
    <trip id="moto10" depart="6.82" departLane="best" from="40416344#0" to="107391104#24" type="moto_motorcycle"/>
    <trip id="moto11" depart="7.50" departLane="best" from="432552980#1" to="5676690#1" type="moto_motorcycle"/>
    <trip id="moto12" depart="8.19" departLane="best" from="-227074781#19" to="46786493" type="moto_motorcycle"/>
    <trip id="moto13" depart="8.87" departLane="best" from="46179211#3" to="495315400" type="moto_motorcycle"/>
    <trip id="moto14" depart="9.55" departLane="best" from="275303293#1" to="46786489" type="moto_motorcycle"/>
    <trip id="moto15" depart="10.23" departLane="best" from="5678215#1" to="221725601#0" type="moto_motorcycle"/>
    <trip id="moto16" depart="10.91" departLane="best" from="5679887#2" to="5679826" type="moto_motorcycle"/>
    <trip id="moto17" depart="11.60" departLane="best" from="587355768" to="221585914#11" type="moto_motorcycle"/>
    <trip id="moto18" depart="12.28" departLane="best" from="545291572#0" to="221759330#1" type="moto_motorcycle"/>
    <trip id="moto19" depart="12.96" departLane="best" from="222251427" to="-37394900" type="moto_motorcycle"/>
    <trip id="moto20" depart="13.64" departLane="best" from="221586638#5" to="276050436" type="moto_motorcycle"/>
    <trip id="moto21" depart="14.33" departLane="best" from="46819899" to="222258266#2" type="moto_motorcycle"/>
    <trip id="moto22" depart="15.01" departLane="best" from="5678919#1" to="-40709908#0" type="moto_motorcycle"/>
    <trip id="moto23" depart="15.69" departLane="best" from="-420882994" to="324751028" type="moto_motorcycle"/>
    <trip id="moto24" depart="16.37" departLane="best" from="-78288188#0" to="46863648#3" type="moto_motorcycle"/>
    <trip id="moto25" depart="17.05" departLane="best" from="5676800" to="440498211" type="moto_motorcycle"/>
    <trip id="moto26" depart="17.74" departLane="best" from="37183340#3" to="-46865764#10" type="moto_motorcycle"/>
    <trip id="moto27" depart="18.42" departLane="best" from="227074790#0" to="46121857" type="moto_motorcycle"/>
    <trip id="moto28" depart="19.10" departLane="best" from="-464551540#3" to="40416342#0" type="moto_motorcycle"/>
    <trip id="moto29" depart="19.78" departLane="best" from="-227064555#1" to="23334065#0" type="moto_motorcycle"/>
    <trip id="moto31" depart="21.15" departLane="best" from="-497257603#9" to="46818904#15" type="moto_motorcycle"/>
    <trip id="moto32" depart="21.83" departLane="best" from="524340776#10" to="-420318559" type="moto_motorcycle"/>
    <trip id="moto33" depart="22.51" departLane="best" from="43242499#4" to="420346480#2" type="moto_motorcycle"/>
    <trip id="moto34" depart="23.19" departLane="best" from="497258437#0" to="221586638#5" type="moto_motorcycle"/>
    <trip id="moto35" depart="23.88" departLane="best" from="5675915#1" to="222246983#1" type="moto_motorcycle"/>
    <trip id="moto36" depart="24.56" departLane="best" from="46818451#1" to="46818905#2" type="moto_motorcycle"/>
    <trip id="moto37" depart="25.24" departLane="best" from="-5680476#3" to="-78288188#4" type="moto_motorcycle"/>
    <trip id="moto38" depart="25.92" departLane="best" from="46137556" to="221694583#1" type="moto_motorcycle"/>
    <trip id="moto39" depart="26.60" departLane="best" from="5682095#3" to="420880630" type="moto_motorcycle"/>
    <trip id="moto40" depart="27.29" departLane="best" from="-483140980#1" to="460584837#1" type="moto_motorcycle"/>
    <trip id="moto41" depart="27.97" departLane="best" from="524345883-AddedOffRampEdge" to="421120404" type="moto_motorcycle"/>
    <trip id="moto42" depart="28.65" departLane="best" from="154513056" to="5678784#27" type="moto_motorcycle"/>
    <trip id="moto43" depart="29.33" departLane="best" from="654744279" to="420626018" type="moto_motorcycle"/>
    <trip id="moto44" depart="30.01" departLane="best" from="530569001#5" to="276083330#1" type="moto_motorcycle"/>
    <trip id="moto45" depart="30.70" departLane="best" from="46863669" to="-5676939#3" type="moto_motorcycle"/>
    <trip id="moto46" depart="31.38" departLane="best" from="5681089" to="68523779#1" type="moto_motorcycle"/>
    <trip id="moto47" depart="32.06" departLane="best" from="5675963#0" to="347014804#3" type="moto_motorcycle"/>
    <trip id="moto48" depart="32.74" departLane="best" from="110277551#0" to="221570521#1" type="moto_motorcycle"/>
    <trip id="moto49" depart="33.43" departLane="best" from="221759329" to="46786525" type="moto_motorcycle"/>
    <trip id="moto50" depart="34.11" departLane="best" from="107391104#21" to="5679437#2" type="moto_motorcycle"/>
    <trip id="moto51" depart="34.79" departLane="best" from="154513057" to="46121872" type="moto_motorcycle"/>
    <trip id="moto52" depart="35.47" departLane="best" from="46835336#13" to="46835346" type="moto_motorcycle"/>
    <trip id="moto54" depart="36.84" departLane="best" from="25723095#3" to="-447792828#4" type="moto_motorcycle"/>
    <trip id="moto55" depart="37.52" departLane="best" from="46863851#0" to="46863840#1" type="moto_motorcycle"/>
    <trip id="moto56" depart="38.20" departLane="best" from="-460126495#0" to="46121861" type="moto_motorcycle"/>
    <trip id="moto57" depart="38.88" departLane="best" from="420875709#1" to="39974314" type="moto_motorcycle"/>
    <trip id="moto58" depart="39.56" departLane="best" from="587355787#2" to="-25198746#1" type="moto_motorcycle"/>
    <trip id="moto59" depart="40.25" departLane="best" from="421116794" to="38341527#0" type="moto_motorcycle"/>
    <trip id="moto60" depart="40.93" departLane="best" from="227064522#1" to="-5676917" type="moto_motorcycle"/>
    <trip id="moto61" depart="41.61" departLane="best" from="46121844#1" to="46121848#4" type="moto_motorcycle"/>
    <trip id="moto62" depart="42.29" departLane="best" from="460584837#10" to="107391104#18" type="moto_motorcycle"/>
    <trip id="moto63" depart="42.98" departLane="best" from="5675915#4" to="107391104#8" type="moto_motorcycle"/>
    <trip id="moto64" depart="43.66" departLane="best" from="479748557#13" to="221585917#0" type="moto_motorcycle"/>
    <trip id="moto65" depart="44.34" departLane="best" from="227074794#2" to="46818452#1-AddedOnRampEdge" type="moto_motorcycle"/>
    <trip id="moto66" depart="45.02" departLane="best" from="5678784#11" to="183916203#2" type="moto_motorcycle"/>
    <trip id="moto67" depart="45.70" departLane="best" from="321542908" to="5681383#8" type="moto_motorcycle"/>
    <trip id="moto68" depart="46.39" departLane="best" from="221585915" to="221585918#9" type="moto_motorcycle"/>
    <trip id="moto69" depart="47.07" departLane="best" from="420346486#1" to="40416346#1" type="moto_motorcycle"/>
    <trip id="moto71" depart="48.43" departLane="best" from="221759318#0" to="46818451#1" type="moto_motorcycle"/>
    <trip id="moto72" depart="49.11" departLane="best" from="535252377" to="479748557#11" type="moto_motorcycle"/>
    <trip id="moto73" depart="49.80" departLane="best" from="5678101#6" to="489437292#0" type="moto_motorcycle"/>
    <trip id="moto74" depart="50.48" departLane="best" from="-5677150#1" to="107391104#26" type="moto_motorcycle"/>
    <trip id="moto75" depart="51.16" departLane="best" from="5677949#9" to="41246540" type="moto_motorcycle"/>
    <trip id="moto76" depart="51.84" departLane="best" from="608794060#0" to="5678366#6" type="moto_motorcycle"/>
    <trip id="moto77" depart="52.53" departLane="best" from="221777109#10" to="-221688754#3" type="moto_motorcycle"/>
    <trip id="moto78" depart="53.21" departLane="best" from="-350687715#1" to="221570521#5" type="moto_motorcycle"/>
    <trip id="moto79" depart="53.89" departLane="best" from="542169856#8" to="450610492#12" type="moto_motorcycle"/>
    <trip id="moto80" depart="54.57" departLane="best" from="5680703#7" to="46817511#1" type="moto_motorcycle"/>
    <trip id="moto81" depart="55.25" departLane="best" from="-658936644#16" to="-526209963#1" type="moto_motorcycle"/>
    <trip id="moto82" depart="55.94" departLane="best" from="-654744285#5" to="288862240#8" type="moto_motorcycle"/>
    <trip id="moto83" depart="56.62" departLane="best" from="227074781#19" to="420304892" type="moto_motorcycle"/>
    <trip id="moto84" depart="57.30" departLane="best" from="5674356" to="46835368#2" type="moto_motorcycle"/>
    <trip id="moto85" depart="57.98" departLane="best" from="34593472#3" to="221696378#1" type="moto_motorcycle"/>
    <trip id="moto86" depart="58.66" departLane="best" from="432554453#1" to="221446578#1" type="moto_motorcycle"/>
    <trip id="moto87" depart="59.35" departLane="best" from="222258266#1" to="239626766" type="moto_motorcycle"/>
    <trip id="moto88" depart="60.03" departLane="best" from="107391104#18" to="-46772625#1" type="moto_motorcycle"/>
    <trip id="moto89" depart="60.71" departLane="best" from="311764602" to="68523772" type="moto_motorcycle"/>
    <trip id="moto90" depart="61.39" departLane="best" from="432552980#1" to="5680637#6" type="moto_motorcycle"/>
    <trip id="moto91" depart="62.08" departLane="best" from="-38341527#0" to="221759321#2" type="moto_motorcycle"/>
    <trip id="moto93" depart="63.44" departLane="best" from="46786486" to="5679171#3" type="moto_motorcycle"/>
    <trip id="moto95" depart="64.80" departLane="best" from="639118784#1" to="-471943031#3" type="moto_motorcycle"/>
    <trip id="moto96" depart="65.49" departLane="best" from="-46772625#3" to="222251427" type="moto_motorcycle"/>
    <trip id="moto97" depart="66.17" departLane="best" from="221753947" to="5678753" type="moto_motorcycle"/>
    <trip id="moto98" depart="66.85" departLane="best" from="5677585#4" to="5675523" type="moto_motorcycle"/>
    <trip id="moto99" depart="67.53" departLane="best" from="460584836#1" to="5674854" type="moto_motorcycle"/>
    <trip id="moto100" depart="68.22" departLane="best" from="483704094#23" to="-221753948#2" type="moto_motorcycle"/>
    <trip id="moto101" depart="68.90" departLane="best" from="221696381#0" to="483704094#10" type="moto_motorcycle"/>
    <trip id="moto102" depart="69.58" departLane="best" from="221602120" to="227064534#5" type="moto_motorcycle"/>
    <trip id="moto103" depart="70.26" departLane="best" from="524340771#4" to="227064523#5" type="moto_motorcycle"/>
    <trip id="moto104" depart="70.94" departLane="best" from="-227064558" to="278135786" type="moto_motorcycle"/>
    <trip id="moto105" depart="71.63" departLane="best" from="5680880#3" to="-5679875#1" type="moto_motorcycle"/>
    <trip id="moto106" depart="72.31" departLane="best" from="5680085#2" to="-5679879" type="moto_motorcycle"/>
    <trip id="moto107" depart="72.99" departLane="best" from="5681892" to="5679708#19" type="moto_motorcycle"/>
    <trip id="moto108" depart="73.67" departLane="best" from="5676353#1" to="573626193" type="moto_motorcycle"/>
    <trip id="moto109" depart="74.35" departLane="best" from="496984337" to="-288862241#2" type="moto_motorcycle"/>
    <trip id="moto110" depart="75.04" departLane="best" from="311764602" to="525646871#1" type="moto_motorcycle"/>
    <trip id="moto112" depart="76.40" departLane="best" from="227074799#1" to="5678366#3" type="moto_motorcycle"/>
    <trip id="moto113" depart="77.08" departLane="best" from="5676800" to="641915866#3" type="moto_motorcycle"/>
    <trip id="moto114" depart="77.77" departLane="best" from="68523754#2" to="239626766" type="moto_motorcycle"/>
    <trip id="moto115" depart="78.45" departLane="best" from="-221585916#7" to="221725598#5" type="moto_motorcycle"/>
    <trip id="moto116" depart="79.13" departLane="best" from="464137214#7" to="493933673#1" type="moto_motorcycle"/>
    <trip id="moto117" depart="79.81" departLane="best" from="-227074786#7" to="5707635#5" type="moto_motorcycle"/>
    <trip id="moto118" depart="80.49" departLane="best" from="451380982#3" to="-494221659#4" type="moto_motorcycle"/>
    <trip id="moto119" depart="81.18" departLane="best" from="-661684796" to="-654744285#3" type="moto_motorcycle"/>
    <trip id="moto120" depart="81.86" departLane="best" from="227064535#6" to="451413253#2" type="moto_motorcycle"/>
    <trip id="moto121" depart="82.54" departLane="best" from="227064535#0" to="5678784#2" type="moto_motorcycle"/>
    <trip id="moto122" depart="83.22" departLane="best" from="420319832#4" to="475559459#2" type="moto_motorcycle"/>
    <trip id="moto123" depart="83.90" departLane="best" from="5678246#2" to="587355787#3" type="moto_motorcycle"/>
    <trip id="moto124" depart="84.59" departLane="best" from="46835344#2" to="420572567" type="moto_motorcycle"/>
    <trip id="moto125" depart="85.27" departLane="best" from="-497561531#0" to="5674349" type="moto_motorcycle"/>
    <trip id="moto126" depart="85.95" departLane="best" from="227064513#3" to="46835336#27" type="moto_motorcycle"/>
    <trip id="moto127" depart="86.63" departLane="best" from="5680800" to="-46121844#0" type="moto_motorcycle"/>
    <trip id="moto128" depart="87.32" departLane="best" from="488941121#4" to="5679490#1" type="moto_motorcycle"/>
    <trip id="moto129" depart="88.00" departLane="best" from="-524340771#7" to="420880051#1" type="moto_motorcycle"/>
    <trip id="moto130" depart="88.68" departLane="best" from="-420318571" to="450610492#15" type="moto_motorcycle"/>
    <trip id="moto131" depart="89.36" departLane="best" from="-222246538#2" to="107391104#1" type="moto_motorcycle"/>
    <trip id="moto132" depart="90.04" departLane="best" from="-288862241#0" to="5681491#2" type="moto_motorcycle"/>
    <trip id="moto133" depart="90.73" departLane="best" from="5680549" to="46121853#1" type="moto_motorcycle"/>
    <trip id="moto134" depart="91.41" departLane="best" from="450610492#20" to="276050435#2" type="moto_motorcycle"/>
    <trip id="moto135" depart="92.09" departLane="best" from="221583067" to="250372840#5" type="moto_motorcycle"/>
    <trip id="moto136" depart="92.77" departLane="best" from="46817511#3" to="5678147#6" type="moto_motorcycle"/>
    <trip id="moto137" depart="93.45" departLane="best" from="42913270" to="46863673#1" type="moto_motorcycle"/>
    <trip id="moto138" depart="94.14" departLane="best" from="658936639#0" to="495491358#2" type="moto_motorcycle"/>
    <trip id="moto139" depart="94.82" departLane="best" from="308340267#7" to="25564006#1" type="moto_motorcycle"/>
    <trip id="moto140" depart="95.50" departLane="best" from="5678889#1" to="46865764#5" type="moto_motorcycle"/>
    <trip id="moto141" depart="96.18" departLane="best" from="468009828" to="-601732567#0" type="moto_motorcycle"/>
    <trip id="moto142" depart="96.87" departLane="best" from="-37793000#0" to="-494221659#4" type="moto_motorcycle"/>
    <trip id="moto143" depart="97.55" departLane="best" from="496995106" to="46863844#7" type="moto_motorcycle"/>
    <trip id="moto144" depart="98.23" departLane="best" from="221601322#16" to="37602216#5" type="moto_motorcycle"/>
    <trip id="moto145" depart="98.91" departLane="best" from="5678147#2" to="587355761#0" type="moto_motorcycle"/>
    <trip id="moto146" depart="99.59" departLane="best" from="420346478#0" to="420584903#0" type="moto_motorcycle"/>
    <trip id="moto147" depart="100.28" departLane="best" from="488941121#8" to="288862240#3" type="moto_motorcycle"/>
    <trip id="moto148" depart="100.96" departLane="best" from="46121850#0" to="227064535#7" type="moto_motorcycle"/>
    <trip id="moto149" depart="101.64" departLane="best" from="-497257600" to="-497257603#8" type="moto_motorcycle"/>
    <trip id="moto150" depart="102.32" departLane="best" from="221696377#4" to="525679230#1" type="moto_motorcycle"/>
    <trip id="moto151" depart="103.00" departLane="best" from="451915589" to="420346488#2" type="moto_motorcycle"/>
    <trip id="moto154" depart="105.05" departLane="best" from="-239626769#2" to="239626767#1" type="moto_motorcycle"/>
    <trip id="moto155" depart="105.73" departLane="best" from="221597280#9" to="5680361#1" type="moto_motorcycle"/>
    <trip id="moto156" depart="106.42" departLane="best" from="46838317#1" to="353256024" type="moto_motorcycle"/>
    <trip id="moto157" depart="107.10" departLane="best" from="489437292#5" to="5679854#12" type="moto_motorcycle"/>
    <trip id="moto158" depart="107.78" departLane="best" from="-5679720" to="5678233#1" type="moto_motorcycle"/>
    <trip id="moto159" depart="108.46" departLane="best" from="421755067#1" to="25564005" type="moto_motorcycle"/>
    <trip id="moto160" depart="109.14" departLane="best" from="46820403#0" to="5678784#26" type="moto_motorcycle"/>
    <trip id="moto161" depart="109.83" departLane="best" from="34287042#4" to="46818904#7" type="moto_motorcycle"/>
    <trip id="moto162" depart="110.51" departLane="best" from="221586638#5" to="5676437" type="moto_motorcycle"/>
    <trip id="moto163" depart="111.19" departLane="best" from="-46835364" to="5681691#3" type="moto_motorcycle"/>
    <trip id="moto164" depart="111.87" departLane="best" from="5677949#10" to="654744285#2" type="moto_motorcycle"/>
    <trip id="moto165" depart="112.55" departLane="best" from="420304910#0" to="5677211" type="moto_motorcycle"/>
    <trip id="moto166" depart="113.24" departLane="best" from="41381890#2" to="-239626769#0" type="moto_motorcycle"/>
    <trip id="moto167" depart="113.92" departLane="best" from="-420346445" to="-494221659#1" type="moto_motorcycle"/>
    <trip id="moto168" depart="114.60" departLane="best" from="-5679471" to="5677438#15" type="moto_motorcycle"/>
    <trip id="moto169" depart="115.28" departLane="best" from="221586638#10" to="221585914#0" type="moto_motorcycle"/>
    <trip id="moto170" depart="115.97" departLane="best" from="227002831#2" to="46838302#1" type="moto_motorcycle"/>
    <trip id="moto171" depart="116.65" departLane="best" from="-221688255#1" to="497254142" type="moto_motorcycle"/>
    <trip id="moto172" depart="117.33" departLane="best" from="221585907#1" to="276145117#1" type="moto_motorcycle"/>
    <trip id="moto173" depart="118.01" departLane="best" from="-5679171#12" to="5680442#5" type="moto_motorcycle"/>
    <trip id="moto174" depart="118.69" departLane="best" from="5677926#1" to="5677949#22" type="moto_motorcycle"/>
    <trip id="moto175" depart="119.38" departLane="best" from="40416338#1" to="5680996" type="moto_motorcycle"/>
    <trip id="moto176" depart="120.06" departLane="best" from="-5681578" to="5680736" type="moto_motorcycle"/>
    <trip id="moto177" depart="120.74" departLane="best" from="5676803#3" to="97010425#0" type="moto_motorcycle"/>
    <trip id="moto178" depart="121.42" departLane="best" from="-5678246#7" to="672080271" type="moto_motorcycle"/>
    <trip id="moto179" depart="122.11" departLane="best" from="497149598#0" to="5681578" type="moto_motorcycle"/>
    <trip id="moto180" depart="122.79" departLane="best" from="5677340#3" to="122625689" type="moto_motorcycle"/>
    <trip id="moto181" depart="123.47" departLane="best" from="227074781#8" to="68523760#0" type="moto_motorcycle"/>
    <trip id="moto183" depart="124.83" departLane="best" from="107391104#17" to="-37195087#1" type="moto_motorcycle"/>
    <trip id="moto184" depart="125.52" departLane="best" from="-420583307#0" to="420319835#1" type="moto_motorcycle"/>
    <trip id="moto185" depart="126.20" departLane="best" from="221585907#0" to="221777109#11" type="moto_motorcycle"/>
    <trip id="moto186" depart="126.88" departLane="best" from="222258278" to="37394899#1" type="moto_motorcycle"/>
    <trip id="moto187" depart="127.56" departLane="best" from="46865768#1" to="-420880040" type="moto_motorcycle"/>
    <trip id="moto188" depart="128.24" departLane="best" from="37793000#0" to="5680419#0" type="moto_motorcycle"/>
    <trip id="moto189" depart="128.93" departLane="best" from="46817511#4" to="-46818904#10" type="moto_motorcycle"/>
    <trip id="moto191" depart="130.29" departLane="best" from="420880042#1" to="300084882" type="moto_motorcycle"/>
    <trip id="moto192" depart="130.97" departLane="best" from="46121850#0" to="5676999" type="moto_motorcycle"/>
    <trip id="moto193" depart="131.66" departLane="best" from="5676656#4" to="5679930" type="moto_motorcycle"/>
    <trip id="moto194" depart="132.34" departLane="best" from="420346477#0" to="46846378#1" type="moto_motorcycle"/>
    <trip id="moto195" depart="133.02" departLane="best" from="-497253779" to="5680703#8" type="moto_motorcycle"/>
    <trip id="moto196" depart="133.70" departLane="best" from="5676852#0" to="-154513057" type="moto_motorcycle"/>
    <trip id="moto197" depart="134.38" departLane="best" from="227064523#4" to="227064534#5" type="moto_motorcycle"/>
    <trip id="moto198" depart="135.07" departLane="best" from="275303281" to="250372840#7" type="moto_motorcycle"/>
    <trip id="moto199" depart="135.75" departLane="best" from="421752007" to="5677585#1" type="moto_motorcycle"/>
    <trip id="moto200" depart="136.43" departLane="best" from="221694583#0" to="5678784#19" type="moto_motorcycle"/>
    <trip id="moto201" depart="137.11" departLane="best" from="46818902#1" to="206610786#4" type="moto_motorcycle"/>
    <trip id="moto202" depart="137.79" departLane="best" from="497149598#0" to="227064522#2" type="moto_motorcycle"/>
    <trip id="moto203" depart="138.48" departLane="best" from="5678262#13" to="221725598#4" type="moto_motorcycle"/>
    <trip id="moto204" depart="139.16" departLane="best" from="5674502#3" to="46788746#2" type="moto_motorcycle"/>
    <trip id="moto205" depart="139.84" departLane="best" from="421752007" to="-227074776#3" type="moto_motorcycle"/>
    <trip id="moto206" depart="140.52" departLane="best" from="68523765#5" to="483704094#1" type="moto_motorcycle"/>
    <trip id="moto207" depart="141.21" departLane="best" from="-5679420" to="524345883-AddedOffRampEdge" type="moto_motorcycle"/>
    <trip id="moto208" depart="141.89" departLane="best" from="-5675523" to="-222247847#0" type="moto_motorcycle"/>
    <trip id="moto209" depart="142.57" departLane="best" from="221597280#6" to="5676262#8" type="moto_motorcycle"/>
    <trip id="moto211" depart="143.93" departLane="best" from="46818457-AddedOnRampEdge" to="5680167#2" type="moto_motorcycle"/>
    <trip id="moto212" depart="144.62" departLane="best" from="5677818#4" to="46865765#0" type="moto_motorcycle"/>
    <trip id="moto213" depart="145.30" departLane="best" from="420880046#0" to="524340771#2" type="moto_motorcycle"/>
    <trip id="moto214" depart="145.98" departLane="best" from="5678574" to="461075409#0" type="moto_motorcycle"/>
    <trip id="moto215" depart="146.66" departLane="best" from="5679854#4" to="-420304938" type="moto_motorcycle"/>
    <trip id="moto216" depart="147.34" departLane="best" from="451380982#3" to="-111781747#0" type="moto_motorcycle"/>
    <trip id="moto217" depart="148.03" departLane="best" from="524340776#7" to="-46772625#4" type="moto_motorcycle"/>
    <trip id="moto218" depart="148.71" departLane="best" from="420880039" to="524340776#4" type="moto_motorcycle"/>
    <trip id="moto219" depart="149.39" departLane="best" from="-46788749#1" to="545291578#1-AddedOffRampEdge" type="moto_motorcycle"/>
    <trip id="moto220" depart="150.07" departLane="best" from="25723095#1" to="5681544#3" type="moto_motorcycle"/>
    <trip id="moto221" depart="150.76" departLane="best" from="5676994#17" to="37602216#2" type="moto_motorcycle"/>
    <trip id="moto222" depart="151.44" departLane="best" from="-464137214#9" to="420880042#1" type="moto_motorcycle"/>
    <trip id="moto223" depart="152.12" departLane="best" from="5675992" to="221725598#8" type="moto_motorcycle"/>
    <trip id="moto224" depart="152.80" departLane="best" from="497258437#2" to="5679854#4" type="moto_motorcycle"/>
    <trip id="moto226" depart="154.17" departLane="best" from="221446578#0" to="219964428#14" type="moto_motorcycle"/>
    <trip id="moto227" depart="154.85" departLane="best" from="5677749" to="221605484#1" type="moto_motorcycle"/>
    <trip id="moto228" depart="155.53" departLane="best" from="5677037#5" to="5680037" type="moto_motorcycle"/>
    <trip id="moto229" depart="156.21" departLane="best" from="497259892#3" to="46865764#3" type="moto_motorcycle"/>
    <trip id="moto230" depart="156.89" departLane="best" from="46774534#1" to="5677397#9" type="moto_motorcycle"/>
    <trip id="moto231" depart="157.58" departLane="best" from="420571192" to="232270200#4" type="moto_motorcycle"/>
    <trip id="moto232" depart="158.26" departLane="best" from="46788758" to="46835348" type="moto_motorcycle"/>
    <trip id="moto233" depart="158.94" departLane="best" from="5680851#2" to="5678442#18" type="moto_motorcycle"/>
    <trip id="moto234" depart="159.62" departLane="best" from="43242499#2" to="524340776#7" type="moto_motorcycle"/>
    <trip id="moto235" depart="160.31" departLane="best" from="5675963#1" to="-5676939#0" type="moto_motorcycle"/>
    <trip id="moto236" depart="160.99" departLane="best" from="5677438#3" to="460779250#9" type="moto_motorcycle"/>
    <trip id="moto237" depart="161.67" departLane="best" from="460569807#1" to="123001151#2" type="moto_motorcycle"/>
    <trip id="moto238" depart="162.35" departLane="best" from="-494221659#8" to="111781747#7" type="moto_motorcycle"/>
    <trip id="moto239" depart="163.03" departLane="best" from="5678442#18" to="-587067529#0" type="moto_motorcycle"/>
    <trip id="moto240" depart="163.72" departLane="best" from="-5677270" to="5678101#10" type="moto_motorcycle"/>
    <trip id="moto241" depart="164.40" departLane="best" from="-420572566" to="46835342#1" type="moto_motorcycle"/>
    <trip id="moto242" depart="165.08" departLane="best" from="221585918#0" to="46786493" type="moto_motorcycle"/>
    <trip id="moto243" depart="165.76" departLane="best" from="-148285572#6" to="204842637#0" type="moto_motorcycle"/>
    <trip id="moto244" depart="166.44" departLane="best" from="227074807#0" to="420883008#1" type="moto_motorcycle"/>
    <trip id="moto245" depart="167.13" departLane="best" from="-5681578" to="420567578" type="moto_motorcycle"/>
    <trip id="moto246" depart="167.81" departLane="best" from="-23113651#1" to="23042415" type="moto_motorcycle"/>
    <trip id="moto247" depart="168.49" departLane="best" from="-222254955" to="654744274#6" type="moto_motorcycle"/>
    <trip id="moto248" depart="169.17" departLane="best" from="5680742#2" to="432552976" type="moto_motorcycle"/>
    <trip id="moto249" depart="169.86" departLane="best" from="222247159" to="552015559#0" type="moto_motorcycle"/>
    <trip id="moto250" depart="170.54" departLane="best" from="464255710" to="46121853#2" type="moto_motorcycle"/>
    <trip id="moto251" depart="171.22" departLane="best" from="68523754#1" to="5680024#1" type="moto_motorcycle"/>
    <trip id="moto252" depart="171.90" departLane="best" from="-421149636#0" to="-654744274#6" type="moto_motorcycle"/>
    <trip id="moto253" depart="172.58" departLane="best" from="110161764#1" to="221759318#3" type="moto_motorcycle"/>
    <trip id="moto254" depart="173.27" departLane="best" from="5674866" to="5679759" type="moto_motorcycle"/>
    <trip id="moto255" depart="173.95" departLane="best" from="5677945#1" to="221602120" type="moto_motorcycle"/>
    <trip id="moto256" depart="174.63" departLane="best" from="219964428#3" to="5678756#4" type="moto_motorcycle"/>
    <trip id="moto257" depart="175.31" departLane="best" from="38341527#2" to="227064556#2" type="moto_motorcycle"/>
    <trip id="moto258" depart="175.99" departLane="best" from="5680442#10" to="221585914#6" type="moto_motorcycle"/>
    <trip id="moto259" depart="176.68" departLane="best" from="-420882994" to="5681248#0" type="moto_motorcycle"/>
    <trip id="moto260" depart="177.36" departLane="best" from="479748557#9" to="483704094#17" type="moto_motorcycle"/>
    <trip id="moto261" depart="178.04" departLane="best" from="641437649" to="515885162#5" type="moto_motorcycle"/>
    <trip id="moto262" depart="178.72" departLane="best" from="-206610786#15" to="-78288188#2" type="moto_motorcycle"/>
    <trip id="moto263" depart="179.41" departLane="best" from="440633404#7" to="183103118#1" type="moto_motorcycle"/>
    <trip id="moto264" depart="180.09" departLane="best" from="222254955" to="420880042#0" type="moto_motorcycle"/>
    <trip id="moto265" depart="180.77" departLane="best" from="-5680631#6" to="524340771#2" type="moto_motorcycle"/>
    <trip id="moto266" depart="181.45" departLane="best" from="227002831#2" to="5679758#3" type="moto_motorcycle"/>
    <trip id="moto267" depart="182.13" departLane="best" from="-227074786#2" to="5678262#7" type="moto_motorcycle"/>
    <trip id="moto268" depart="182.82" departLane="best" from="222246978" to="46121844#0" type="moto_motorcycle"/>