<?xml version="1.0" encoding="UTF-8"?>

<!-- generated on Wed May  1 21:30:19 2019 by Eclipse SUMO duarouter Version v1_0_0+0075-0a525fa
<configuration xmlns:xsi="http://www.w3.org/2001/XMLSchema-instance" xsi:noNamespaceSchemaLocation="http://sumo.dlr.de/xsd/duarouterConfiguration.xsd">

    <input>
        <net-file value="osm.net.xml"/>
        <route-files value="osm.motorcycle.trips.xml"/>
    </input>

    <output>
        <output-file value="osm.motorcycle.rou.xml"/>
        <alternatives-output value="osm.motorcycle.rou.alt.xml"/>
    </output>

    <time>
        <begin value="0"/>
        <end value="3600.0"/>
    </time>

    <report>
        <no-warnings value="true"/>
        <ignore-errors value="true"/>
        <no-step-log value="true"/>
    </report>

</configuration>
-->

<routes xmlns:xsi="http://www.w3.org/2001/XMLSchema-instance" xsi:noNamespaceSchemaLocation="http://sumo.dlr.de/xsd/routes_file.xsd">
    <vType id="moto_motorcycle" vClass="motorcycle"/>
    <vehicle id="moto0" type="moto_motorcycle" depart="0.00" departLane="best">
        <route edges="421755067#0 421755067#1 421755066 221723366 420880048 468009828 -5679420 420512627 110155730#0 110155730#2 421754837 511768217 456391963#0 456391963#1 456391963#2 110155732 420571190#1 46788744#0 46788744#1 46788744#2 -68523775#1 -68523775#0 626315789#0 626315789#1 626315789#2"/>
    </vehicle>
    <vehicle id="moto1" type="moto_motorcycle" depart="0.68" departLane="best">
        <route edges="451910413#0 451910413#1 451910413#2 451910413#3 221585908#3 221585908#4 221585908#5"/>
    </vehicle>
    <vehicle id="moto2" type="moto_motorcycle" depart="1.36" departLane="best">
        <route edges="-232270198#0 -587355743 -239626765 -5676705 239626764#0 239626764#1"/>
    </vehicle>
    <vehicle id="moto3" type="moto_motorcycle" depart="2.05" departLane="best">
        <route edges="-206610786#13 -206610786#10 -206610786#7 -206610786#6 -206610786#5 -206610786#4 -206610786#1 -206610786#0 -682402640 -497253779 -682402388 -682402389 -497253780#8 -497253780#7 -46818468#2 -46818468#1 -46818468#0 5678919#0 5678919#1 -574211884 -5678535 -5680476#4 -5680476#3 -338280635 5674502#3"/>
    </vehicle>
    <vehicle id="moto4" type="moto_motorcycle" depart="2.73" departLane="best">
        <route edges="5679904#5 5679904#6 5679904#7 221585917#2 46865764#4 46865764#5 46865764#6 46865764#7 46865764#8 46865764#9 46865764#10 5680120#6 221585908#5"/>
    </vehicle>
    <vehicle id="moto5" type="moto_motorcycle" depart="3.41" departLane="best">
        <route edges="5680024#12 473475837#1 -46863691#4 -46863691#3 -46863691#1 -46863691#0 516664556#0 516664556#1 440633375 421121608 -420567578 -420567577 -420567582 46863780 460576113 463533917 227064523#1 227064523#2 227064523#3 227064523#4 227064523#5 227064523#6 227064522#0 227064522#1 227064522#2 227064522#3 183916221#3 183916221#4 5678784#10"/>
    </vehicle>
    <vehicle id="moto6" type="moto_motorcycle" depart="4.09" departLane="best">
        <route edges="-37793000#5 -37793000#2 -37793000#0 680830803 420346486#0 420346486#1 420346488#0 420346488#1 420346488#2 420346490#0 420346490#1 420346490#2"/>
    </vehicle>
    <vehicle id="moto7" type="moto_motorcycle" depart="4.78" departLane="best">
        <route edges="-587067526#0 221696377#0 221696377#1 496980629#1 420319835#0 227064531#1 227064531#2 222246284 221570521#0 221570521#1 38341528#1 5680880#3"/>
    </vehicle>
    <vehicle id="moto9" type="moto_motorcycle" depart="6.14" departLane="best">
        <route edges="37523532#0 37523532#1 68523771 5681396 40178577#0 40178577#1 46788744#2 222247847#0 222247847#1 222247847#2 -420886405 -222258273#8 -222258273#7 -222258273#6 -222258273#5 -222258273#4 -222258273#3 5677585#0"/>
    </vehicle>
    <vehicle id="moto10" type="moto_motorcycle" depart="6.82" departLane="best">
        <route edges="40416344#0 40416344#1 5680646 46137501#1 455014440#0 455014440#1 221723367 420880635 -5682006 107391104#23 107391104#24"/>
    </vehicle>
    <vehicle id="moto11" type="moto_motorcycle" depart="7.50" departLane="best">
        <route edges="432552980#1 5678442#13 5678442#14 5678442#15 5678442#16 5678442#17 5678442#18 5678442#19 5678442#20 5678442#21 5678442#22 5677950#3 5677950#4 5677950#5 5676234#2 5676690#1"/>
    </vehicle>
    <vehicle id="moto12" type="moto_motorcycle" depart="8.19" departLane="best">
        <route edges="-227074781#19 151471700 -219964428#2 -219964428#0 -221585918#10 -221585918#9 -221585918#8 5680361#0 5680361#1 497256597 497256596 420304895 420304902#1 46786492 46786493"/>
    </vehicle>
    <vehicle id="moto13" type="moto_motorcycle" depart="8.87" departLane="best">
        <route edges="46179211#3 598435630 5677903#0 5677903#1 68325081 420571181 420572573 221696387 46788735 495315405#0 495315405#1 495315400"/>
    </vehicle>
    <vehicle id="moto14" type="moto_motorcycle" depart="9.55" departLane="best">
        <route edges="275303293#1 275303271 5678756#1 5678101#10 5678101#11 5678101#12 5678101#13 5678101#14 5678101#15 5678101#16 5677049 -221585918#12 497259896#0 497259896#1 46774534#0 46786488 46786489"/>
    </vehicle>
    <vehicle id="moto15" type="moto_motorcycle" depart="10.23" departLane="best">
        <route edges="5678215#1 -5678101#2 -5678101#1 -5678101#0 -221725602#3 -221725602#1 -221725599#1 -221725599#0 -219964442#1 5679548#1 221725601#0"/>
    </vehicle>
    <vehicle id="moto16" type="moto_motorcycle" depart="10.91" departLane="best">
        <route edges="5679887#2 5679887#3 -46818904#19 -46818904#18 5678442#28 5678442#29 5678442#31 5678442#32 227064529#0 5679826"/>
    </vehicle>
    <vehicle id="moto17" type="moto_motorcycle" depart="11.60" departLane="best">
        <route edges="587355768 -221777103 221777109#0 221777109#1 221777109#2 221777109#3 221777109#4 221777109#5 221777109#6 221777109#7 221777109#8 221777109#9 221777109#10 221777109#11 221777109#12 221777109#13 -432552979#1 -432552979#0 221585914#11"/>
    </vehicle>
    <vehicle id="moto18" type="moto_motorcycle" depart="12.28" departLane="best">
        <route edges="545291572#0 545291572#1 210311245 464255705 221694583#0 221694583#1 440633365 440633365-AddedOffRampEdge 455211317#0 455211317#1 455211317#2 221694584 46121855 46121864#1 46121864#2 46820140 221759319 221759330#0 221759330#1"/>
    </vehicle>
    <vehicle id="moto19" type="moto_motorcycle" depart="12.96" departLane="best">
        <route edges="222251427 -334341973#3 -334341973#2 -334341973#1 -334341973#0 -276202770 288862241#1 5678927#0 288862240#1 288862240#2 288862240#3 288862240#4 288862240#5 -654744274#6 -654744274#5 -654744274#4 -654744274#3 -654744274#2 -497253780#3 -497253780#2 -497253780#1 -497253780#0 -37394900"/>
    </vehicle>
    <vehicle id="moto20" type="moto_motorcycle" depart="13.64" departLane="best">
        <route edges="221586638#5 221586638#6 221586638#7 221586638#8 221586638#9 475559459#3 475559459#4 5676268 276050436"/>
    </vehicle>
    <vehicle id="moto21" type="moto_motorcycle" depart="14.33" departLane="best">
        <route edges="46819899 122625703 122625703-AddedOffRampEdge 46835357#0 5673865 5673865-AddedOffRampEdge 671273490 -5682051 -420572568 46121849 421120403 420569583 639805149 23334074#0 23334074#1 23334074#2 420567582 420567577 420567578 420567573 420567579 37396284 455014438 420572575 221604539 222248833 -222246978 -386201385 -460576121 -630677037 -630677041 -460576120 -221696387 -420572573 -420572572 -497561531#0 -495315410 -455201237#1 -455201237#0 -675320846 -46137554#1 -46137554#0 46137555#0 545291578#1 545291578#1-AddedOffRampEdge 46137556 222258266#0 222258266#1 222258266#2"/>
    </vehicle>
    <vehicle id="moto22" type="moto_motorcycle" depart="15.01" departLane="best">
        <route edges="5678919#1 464137215 222258273#0 222258273#1 222258273#2 222258273#3 222258273#4 222258273#5 222258273#6 5681395#0 5681395#1 46818905#0 46818905#2 46818905#3 5680695#0 5680695#1 -40709908#1 -40709908#0"/>
    </vehicle>
    <vehicle id="moto23" type="moto_motorcycle" depart="15.69" departLane="best">
        <route edges="-420882994 145079213#1 145079213#2 347014804#3 -420567580 -420567576 -221603657 -420567575 37396284 455014438 420572575 221604539 222248833 46121867#0 46788758 324751028"/>
    </vehicle>
    <vehicle id="moto24" type="moto_motorcycle" depart="16.37" departLane="best">
        <route edges="-78288188#0 46818468#0 46818468#1 46818468#2 497253780#7 497253780#8 682402389 682402388 497253779 682402640 206610786#0 206610786#1 206610786#4 46863648#0 46863648#1 46863648#2 46863648#3"/>
    </vehicle>
    <vehicle id="moto25" type="moto_motorcycle" depart="17.05" departLane="best">
        <route edges="5676800 183916203#0 183916203#1 183916203#2 227064535#0 227064535#1 227064535#2 227064535#3 227064535#5 227064535#6 227064535#7 227064535#8 227064535#9 5676474#1 440498211"/>
    </vehicle>
    <vehicle id="moto26" type="moto_motorcycle" depart="17.74" departLane="best">
        <route edges="37183340#3 420315111#1 421084097 420304910#0 420304910#1 5679904#5 5679904#6 5679904#7 5679904#8 5679904#9 5679904#11 5679904#12 5679904#13 5679904#14 5679904#15 5680120#5 -46865764#10"/>
    </vehicle>
    <vehicle id="moto27" type="moto_motorcycle" depart="18.42" departLane="best">
        <route edges="227074790#0 46121850#1 227074768 222254951#1 451962063 37396284 455014438 420572575 221604539 222248833 -221604537#1 -221604537#0 46121857"/>
    </vehicle>
    <vehicle id="moto28" type="moto_motorcycle" depart="19.10" departLane="best">
        <route edges="-464551540#3 -464551540#2 -464551540#1 -464551540#0 420346439 420346447#1 420346447#2 420346444#1 587355787#0 587355787#1 587355787#2 587355787#3 185196950 354928473#0 354928473#1 40416342#0"/>
    </vehicle>
    <vehicle id="moto29" type="moto_motorcycle" depart="19.78" departLane="best">
        <route edges="-227064555#1 5679765 537983603#0 537983603#1 515885162#0 515885162#1 515885162#2 515885162#3 515885162#4 658936633#3 658936633#4 658936633#5 -420584217 -221759323#1 -221759323#0 -420584216 -227064556#5 250453883#1 23334065#0"/>
    </vehicle>
    <vehicle id="moto31" type="moto_motorcycle" depart="21.15" departLane="best">
        <route edges="-497257603#9 -497257603#8 221585914#26 221585914#27 221585914#28 221585914#29 587355768 221585907#0 221585907#1 221585907#2 221585907#3 -221753935 -221753949#1 -221753949#0 227064529#0 227064529#1 497257602 590201148 500452656#0 46818904#15"/>
    </vehicle>
    <vehicle id="moto32" type="moto_motorcycle" depart="21.83" departLane="best">
        <route edges="524340776#10 5676489#5 5680039 221601322#10 221601322#11 221601322#12 409285510#4 37447362#0 68523758 421118179 421118177#0 421118177#1 46137552 295384457#0 295384457#1 420583316#0 420583316#1 420583307#1 420583309#0 420583309#1 420583304#1 515885162#3 515885162#4 515885162#5 515885162#6 501646256 127739254 348456697#0 348456697#1 495491359#0 495491359#1 -420318559"/>
    </vehicle>
    <vehicle id="moto33" type="moto_motorcycle" depart="22.51" departLane="best">
        <route edges="43242499#4 451380987#3 451380987#4 227074808 227074807#0 227074807#1 227074807#2 420346484#0 420346484#1 420346484#2 420346480#0 420346480#1 420346480#2"/>
    </vehicle>
    <vehicle id="moto34" type="moto_motorcycle" depart="23.19" departLane="best">
        <route edges="497258437#0 221597280#4 221597280#5 221597280#6 221597280#7 221597280#8 221597280#9 221597280#10 221597280#11 221597280#12 221597280#13 221597280#14 221597280#15 221586638#0 221586638#1 221586638#2 221586638#3 221586638#4 221586638#5"/>
    </vehicle>
    <vehicle id="moto35" type="moto_motorcycle" depart="23.88" departLane="best">
        <route edges="5675915#1 -420880049#0 -46121853#2 -46121853#1 -46121853#0 500534706 110155730#0 110155730#2 421754837 511768217 456391963#0 456391963#1 456391963#2 110155732 420571190#1 496990716 46121873#0 46121873#1 46121873#2 -5676937 46818464 68523753 46818457-AddedOnRampEdge 46818457 420571185 221605484#1 222246983#0 222246983#1"/>
    </vehicle>
    <vehicle id="moto36" type="moto_motorcycle" depart="24.56" departLane="best">
        <route edges="46818451#1 46121872 496990716 46121873#0 46121873#1 46121873#2 5675963#0 5675963#1 5675963#2 5675963#3 5675963#4 5675963#5 5675963#6 5675963#7 46818905#0 46818905#2"/>
    </vehicle>
    <vehicle id="moto37" type="moto_motorcycle" depart="25.24" departLane="best">
        <route edges="-5680476#3 -338280635 5674502#3 574211884 -5678919#1 -5678919#0 78288188#0 78288188#1 78288188#2 78288188#3 78288188#4 5705730 46141624 5677924 46818902#1 -227074775#1 -227074775#0 -5705730 -78288188#4"/>
    </vehicle>
    <vehicle id="moto38" type="moto_motorcycle" depart="25.92" departLane="best">
        <route edges="46137556 68523775#0 68523775#1 -46788744#2 -46788744#1 -46788744#0 420571185 221605484#1 68325081 420571181 420571192 420571183 78288187#0 78288187#1 421120405 227074797#0 227074797#1 464255705 221694583#0 221694583#1"/>
    </vehicle>
    <vehicle id="moto39" type="moto_motorcycle" depart="26.60" departLane="best">
        <route edges="5682095#3 37447362#0 68523758 5677899#1 5677899#2 68523776-AddedOnRampEdge 68523776 97010378#0 452286946#1 -452286949#1 -497382067#1 -497382067#0 -451915594#1 -451915594#0 222258277 -451915592 -451915590 -496982424 -451915588 -222251431 -420880043 46865766 226998579 46865767#0 222266013 620132897 420883003 221759331#1 421151334#1 420880634 420880630"/>
    </vehicle>
    <vehicle id="moto40" type="moto_motorcycle" depart="27.29" departLane="best">
        <route edges="-483140980#1 -483140980#0 483140979 483140982#1 46818468#0 46817493#3 46817493#4 46817493#5 46817493#6 46817493#7 46817493#8 46817493#9 227064525 460584836#0 460584836#1 460584837#1"/>
    </vehicle>
    <vehicle id="moto41" type="moto_motorcycle" depart="27.97" departLane="best">
        <route edges="524345883-AddedOffRampEdge 37523639 40178577#0 40178577#1 -46788744#1 -46788744#0 420571185 221605484#1 68325081 420571181 420572573 221696387 460576120 630677041 630677037 460576121 386201385 222246978 -222248833 -420572574 516664556#0 516664556#1 440633375 5680024#10 455014438 421120404"/>
    </vehicle>
    <vehicle id="moto42" type="moto_motorcycle" depart="28.65" departLane="best">
        <route edges="154513056 -239626767#0 -232270204 25564006#0 25564006#1 25564006#2 222248831#0 222248831#1 222248831#2 25564048#1 46137554#0 46137554#1 46137557 455201237#0 455201237#1 495315410 497561531#0 497561531#1 420571192 420571183 78288187#0 78288187#1 421120405 227074797#0 227074797#1 464255705 221694583#0 221694583#1 5681796#0 5681796#1 5681796#2 -46121844#2 -46121844#1 -46121844#0 5677340#0 5678784#26 5678784#27"/>
    </vehicle>
    <vehicle id="moto43" type="moto_motorcycle" depart="29.33" departLane="best">
        <route edges="654744279 460584837#4 460584837#5 460584837#6 46818468#2 46818468#3 46818468#4 46818468#5 420875699 420875707#0 420875707#1 420875709#0 420875709#1 222246543#2 222246543#3 222246543#4 420626018"/>
    </vehicle>
    <vehicle id="moto44" type="moto_motorcycle" depart="30.01" departLane="best">
        <route edges="530569001#5 530568994 -432554453#2 -432554453#1 -432554453#0 221725601#0 221725601#1 221725601#2 221725601#3 -227074765#3 -227074765#2 -227074765#1 -227074765#0 -68523760#2 -68523760#1 -68523760#0 -471943034#4 -471943034#3 -471943034#2 276083328 276083330#0 276083330#1"/>
    </vehicle>
    <vehicle id="moto45" type="moto_motorcycle" depart="30.70" departLane="best">
        <route edges="46863669 324751018 324751025 -5680631#3 5680756#0 5680756#1 46121854 500534706 110155730#0 110155730#2 421754837 511768217 456391963#0 456391963#1 456391963#2 110155732 420571190#1 46788744#0 46788744#1 46788744#2 222247847#0 222247847#1 222247847#2 420886412 420886410#1 -5676939#3"/>
    </vehicle>
    <vehicle id="moto46" type="moto_motorcycle" depart="31.38" departLane="best">
        <route edges="5681089 -232270200#1 -232270200#0 -587355743 -239626768 -232270204 -420886409 -420886410#0 -222247847#2 -222247847#1 -222247847#0 37523532#0 37523532#1 68523771 68523772 68523779#1"/>
    </vehicle>
    <vehicle id="moto47" type="moto_motorcycle" depart="32.06" departLane="best">
        <route edges="5675963#0 5675963#1 5675963#2 5675963#3 -5673953 46817493#16 46818464 68523753 46818457-AddedOnRampEdge 46818457 420571185 221605484#1 222246983#0 222246983#1 222246981#0 222246981#1 421755067#0 421755067#1 421755066 221723366 619552358 5681199#0 5681199#1 5681199#2 5681199#3 145079213#2 347014804#3"/>
    </vehicle>
    <vehicle id="moto48" type="moto_motorcycle" depart="32.74" departLane="best">
        <route edges="110277551#0 110277551#1 110277551#2 515885162#1 515885162#2 420583302#1 420318565 -658936635#1 -221570521#7 -221570521#6 -221570521#5 -221570521#4 -221570521#3 -221570521#2 38341528#1 5680880#3 535252377 221570521#1"/>
    </vehicle>
    <vehicle id="moto49" type="moto_motorcycle" depart="33.43" departLane="best">
        <route edges="221759329 5680880#0 5680880#1 5680880#2 5680880#3 5680880#4 421116791 535252392 421116792 315569175#0 315569175#1 315569175#2 315569175#3 315569175#4 315569175#5 315569175#6 420315113#0 420315113#1 420319832#9 46786525"/>
    </vehicle>
    <vehicle id="moto50" type="moto_motorcycle" depart="34.11" departLane="best">
        <route edges="107391104#21 107391104#22 5682006 288862240#0 288862240#1 288862240#2 288862240#3 288862240#4 288862240#5 288862240#6 288862240#7 288862240#8 -46818468#5 -46818468#4 -46818468#3 497253780#7 497253780#8 682402389 682402388 497253779 682402640 5679437#2"/>
    </vehicle>
    <vehicle id="moto51" type="moto_motorcycle" depart="34.79" departLane="best">
        <route edges="154513057 -239626764#0 5676705 239626765 -239626768 -232270204 25564006#0 25564006#1 25564006#2 222248831#0 222248831#1 222248831#2 46819926#0 110155729 46818451#1-AddedOnRampEdge 46818451#1 46121872"/>
    </vehicle>
    <vehicle id="moto52" type="moto_motorcycle" depart="35.47" departLane="best">
        <route edges="46835336#13 5680024#3 5680024#4 5680167#14 -23334074#0 -639805149 -420569583 -421120403 -46121849 420572568 5682051 511896312 420572567 46835353 460576117 46835354 46835346"/>
    </vehicle>
    <vehicle id="moto54" type="moto_motorcycle" depart="36.84" departLane="best">
        <route edges="25723095#3 25723095#4 420883010 420875688 420875687 -421149633 -421149635 -447792828#6 -447792828#5 -447792828#4"/>
    </vehicle>
    <vehicle id="moto55" type="moto_motorcycle" depart="37.52" departLane="best">
        <route edges="46863851#0 46863855 46863840#0 46863840#1"/>
    </vehicle>
    <vehicle id="moto56" type="moto_motorcycle" depart="38.20" departLane="best">
        <route edges="-460126495#0 46788738 5680993 46788761 347297472 46121861"/>
    </vehicle>
    <vehicle id="moto57" type="moto_motorcycle" depart="38.88" departLane="best">
        <route edges="420875709#1 227074779#0 227074779#1 495491356#1 495491356#2 221696386#8 221696386#9 221696386#10 221696386#11 221696386#12 221696386#13 221696386#14 221696386#15 -68325083#2 -68325083#1 -68325083#0 -227074775#2 -227074775#1 -227074775#0 -5705730 5679460#0 39974314"/>
    </vehicle>
    <vehicle id="moto58" type="moto_motorcycle" depart="39.56" departLane="best">
        <route edges="587355787#2 227074793#0 227074793#1 420346452 -40785409#2 -40785409#1 -40785409#0 -587355787#1 -587355787#0 -23334088 -420346447#2 -420346447#1 -420346447#0 -25198746#3 -25198746#2 -25198746#1"/>
    </vehicle>
    <vehicle id="moto59" type="moto_motorcycle" depart="40.25" departLane="best">
        <route edges="421116794 420319836#1 420319836#2 221696377#3 221696377#4 221696377#5 221696377#6 23334064 38341527#0"/>
    </vehicle>
    <vehicle id="moto60" type="moto_motorcycle" depart="40.93" departLane="best">
        <route edges="227064522#1 227064522#2 5681030#6 46863844#18 46863844#19 46863844#20 46863844#21 46863844#22 46863844#23 222254951#0 222254951#1 451962063 37396284 455014438 420572575 221604539 222248833 -222246978 -386201385 -5676917"/>
    </vehicle>
    <vehicle id="moto61" type="moto_motorcycle" depart="41.61" departLane="best">
        <route edges="46121844#1 46121844#2 46121844#3 37575728#0 37575728#1 37575728#2 221694583#0 221694583#1 440633365 440633365-AddedOffRampEdge 455211317#0 455211317#1 455211317#2 221694584 221604538 5679842 440633375 421121608 -420567578 -420567577 -420567582 -23334074#2 -23334074#1 -23334074#0 -639805149 -420569583 -421120403 -46121849 420572568 5682051 511896312 420572567 420572564 46121848#0 46121848#1 46121848#2 46121848#4"/>
    </vehicle>
    <vehicle id="moto62" type="moto_motorcycle" depart="42.29" departLane="best">
        <route edges="460584837#10 42786504#0 42786504#1 -682402388 -682402389 -497253780#8 -497253780#7 -497253780#6 -497253780#5 -497253780#4 654744274#2 654744274#3 654744274#4 654744274#5 107391104#17 107391104#18"/>
    </vehicle>
    <vehicle id="moto63" type="moto_motorcycle" depart="42.98" departLane="best">
        <route edges="5675915#4 5675915#5 455014440#1 221723367 420880635 288862240#0 288862240#1 288862240#2 288862240#3 288862240#4 288862240#5 288862240#6 288862240#7 288862240#8 420875699 420875707#0 420875707#1 420875709#0 420875709#1 222246543#2 222246543#3 222246543#4 420626018 107391104#0 107391104#1 107391104#3 107391104#4 107391104#5 107391104#7 107391104#8"/>
    </vehicle>
    <vehicle id="moto64" type="moto_motorcycle" depart="43.66" departLane="best">
        <route edges="479748557#13 222246286#5 222246286#6 221585917#0"/>
    </vehicle>
    <vehicle id="moto65" type="moto_motorcycle" depart="44.34" departLane="best">
        <route edges="227074794#2 5678784#22 5678784#23 5678784#24 5678784#25 5678784#26 5678784#27 440606690 -227064517 39015290#0 39015290#1 39015290#2 278135785#0 278135785#1 46819907 5680220#1 440633442 451934311 486010416 557041245 440633414 46819926#0 545291578#1 545291578#1-AddedOffRampEdge 25563998 46818452#1-AddedOnRampEdge"/>
    </vehicle>
    <vehicle id="moto66" type="moto_motorcycle" depart="45.02" departLane="best">
        <route edges="5678784#11 5678784#12 5681940#3 227064523#5 227064523#6 227064522#0 227064522#1 227064522#2 5681030#6 5681030#7 5681030#8 347014806#2 183916203#0 183916203#1 183916203#2"/>
    </vehicle>
    <vehicle id="moto67" type="moto_motorcycle" depart="45.70" departLane="best">
        <route edges="321542908 682886111#0 459397202#1 68523760#2 5676692 227074763 349369490 440633426 227074767#0 227074767#1 227074767#2 221777109#7 221777109#8 221777109#9 5679790#2 5678442#17 5678442#18 5681383#8"/>
    </vehicle>
    <vehicle id="moto68" type="moto_motorcycle" depart="46.39" departLane="best">
        <route edges="221585915 276043641#0 276043641#1 5680589#0 5680589#1 5680589#2 5680589#3 5680589#4 221597280#15 221585906#0 221585906#1 221585906#2 221585906#3 221585906#4 221585906#5 221585906#6 221585918#1 221585918#2 221585918#4 221585918#5 221585918#6 221585918#7 221585918#8 221585918#9"/>
    </vehicle>
    <vehicle id="moto69" type="moto_motorcycle" depart="47.07" departLane="best">
        <route edges="420346486#1 420346488#0 420346488#1 420346488#2 420346490#0 420346490#1 420346490#2 420346490#3 491160987 5679762#6 5679762#7 5679762#8 40416342#1 40416346#1"/>
    </vehicle>
    <vehicle id="moto71" type="moto_motorcycle" depart="48.43" departLane="best">
        <route edges="221759318#0 5678784#24 5678784#25 5678784#26 5678784#27 440606690 -227064517 39015290#0 39015290#1 39015290#2 278135785#0 278135785#1 46819907 5680220#1 440633442 451934311 486010416 557041245 440633414 46819926#0 110155729 46818451#1-AddedOnRampEdge 46818451#1"/>
    </vehicle>
    <vehicle id="moto72" type="moto_motorcycle" depart="49.11" departLane="best">
        <route edges="535252377 221570521#1 38341528#1 38341528#2 38341528#3 38341528#4 38341528#5 479748557#11"/>
    </vehicle>
    <vehicle id="moto73" type="moto_motorcycle" depart="49.80" departLane="best">
        <route edges="5678101#6 221446578#2 219964428#10 219964428#11 219964428#12 219964428#13 219964428#14 432552968 -227074781#6 -227074781#5 5680742#3 489437291 489437292#0"/>
    </vehicle>
    <vehicle id="moto74" type="moto_motorcycle" depart="50.48" departLane="best">
        <route edges="-5677150#1 -154513050#0 5674502#1 5674502#2 5674502#3 574211884 464137215 5675523 654744279 654744274#0 654744274#1 654744274#2 654744274#3 654744274#4 654744274#5 107391104#17 107391104#18 107391104#19 107391104#20 107391104#21 107391104#22 107391104#23 107391104#24 107391104#25 107391104#26"/>
    </vehicle>
    <vehicle id="moto75" type="moto_motorcycle" depart="51.16" departLane="best">
        <route edges="5677949#9 5677949#10 5677949#11 5677949#12 5677949#13 5677949#14 5677949#15 5677949#16 5677949#18 222246539#1 552015559#0 552015559#1 -206610786#0 -682402640 -497253779 -682402388 41246540"/>
    </vehicle>
    <vehicle id="moto76" type="moto_motorcycle" depart="51.84" departLane="best">
        <route edges="608794060#0 46863844#19 46863844#20 46863844#21 46863844#22 5678366#1 5678366#2 5678366#3 5678366#4 5678366#5 5678366#6"/>
    </vehicle>
    <vehicle id="moto77" type="moto_motorcycle" depart="52.53" departLane="best">
        <route edges="221777109#10 34593472#9 34593472#10 34593472#11 -227074781#3 -227074781#2 -227074781#1 -227074781#0 -440633426 587355773 -221688754#4 -221688754#3"/>
    </vehicle>
    <vehicle id="moto78" type="moto_motorcycle" depart="53.21" departLane="best">
        <route edges="-350687715#1 -350687715#0 -221688255#1 -221688255#0 497256109 221696378#0 221696378#1 542169856#1 542169856#2 542169856#3 221586638#12 535252377 221570521#1 221570521#2 221570521#3 221570521#4 221570521#5"/>
    </vehicle>
    <vehicle id="moto79" type="moto_motorcycle" depart="53.89" departLane="best">
        <route edges="542169856#8 542169856#9 542169856#10 542169856#11 542169856#12 420318573 450610492#11 450610492#12"/>
    </vehicle>
    <vehicle id="moto80" type="moto_motorcycle" depart="54.57" departLane="best">
        <route edges="5680703#7 5680703#8 5680704 495491356#1 495491356#2 221696386#8 221696386#9 221696386#10 221696386#11 221696386#12 221696386#13 221696386#14 221696386#15 421123037 587355763 587355765 -221795719#1 -221795719#0 -46818902#0 420884512 5678929#0 5678929#1 46817511#1"/>
    </vehicle>
    <vehicle id="moto81" type="moto_motorcycle" depart="55.25" departLane="best">
        <route edges="-658936644#16 -658936644#0 -658936639#1 -658936639#0 -420318561 -420318559 -420583304#1 -420583304#0 -420583309#0 -420583307#1 -420583307#0 -420583316#0 -295384457#1 -295384457#0 -420583311 420583298#0 420583298#1 5676379#0 5676379#1 5677899#2 68523776-AddedOnRampEdge 68523776 221731900 5675825#0 5675825#1 420583320 43315004#0 43315004#1 -526209963#2 -526209963#1"/>
    </vehicle>
    <vehicle id="moto82" type="moto_motorcycle" depart="55.94" departLane="best">
        <route edges="-654744285#5 288862240#5 288862240#6 288862240#7 288862240#8"/>
    </vehicle>
    <vehicle id="moto83" type="moto_motorcycle" depart="56.62" departLane="best">
        <route edges="227074781#19 5680361#0 5680361#1 497256597 497256596 420304895 420304902#1 420304892"/>
    </vehicle>
    <vehicle id="moto84" type="moto_motorcycle" depart="57.30" departLane="best">
        <route edges="5674356 122625703 122625703-AddedOffRampEdge 46835357#0 5673865 5673865-AddedOffRampEdge 671273490 -5682051 -420572568 46121849 421120403 420569583 639805149 46835336#13 46835336#14 46835336#15 46835336#17 46835336#18 46835336#19 46835336#20 46835336#21 46835336#22 46835336#23 5680085#1 5680085#2 5681691#3 5681691#4 5681691#5 46835368#1 46835368#2"/>
    </vehicle>
    <vehicle id="moto85" type="moto_motorcycle" depart="57.98" departLane="best">
        <route edges="34593472#3 5677037#13 5681568#0 5676994#11 5676994#12 5676994#13 5676994#14 5676994#15 5676994#16 5676994#17 5676994#18 221696381#0 221696381#1 221696381#2 497256110#0 497256110#1 497256109 221696378#0 221696378#1"/>
    </vehicle>
    <vehicle id="moto86" type="moto_motorcycle" depart="58.66" departLane="best">
        <route edges="432554453#1 432554453#2 432554453#3 5679788 221725602#1 221725602#3 5678101#0 5678101#1 5678101#2 5678101#3 5678101#4 5678101#5 5678101#6 5678101#7 -5679171#2 275303285 221446578#1"/>
    </vehicle>
    <vehicle id="moto87" type="moto_motorcycle" depart="59.35" departLane="best">
        <route edges="222258266#1 222258266#2 232270204 239626768 -239626765 -5676705 239626766"/>
    </vehicle>
    <vehicle id="moto88" type="moto_motorcycle" depart="60.03" departLane="best">
        <route edges="107391104#18 5677585#6 288862240#4 288862240#5 654744274#7 227064552 440633451 421149634 204843025#0 204843025#1 542169859 420875693#1 420875693#2 420875712 315569176#1 420875713#1 227064556#0 535252372#4 -46772625#1"/>
    </vehicle>
    <vehicle id="moto89" type="moto_motorcycle" depart="60.71" departLane="best">
        <route edges="311764602 311764602-AddedOffRampEdge 591821087 5680220#0 5680220#1 440633442 451934311 486010416 557041245 440633414 46819926#0 545291578#1 545291578#1-AddedOffRampEdge 46137556 68523775#0 68523775#1 37523532#0 37523532#1 68523771 68523772"/>
    </vehicle>
    <vehicle id="moto90" type="moto_motorcycle" depart="61.39" departLane="best">
        <route edges="432552980#1 5678442#13 5678442#14 5678442#15 5678442#16 5678442#17 5678442#18 5678442#19 5678442#20 5678442#21 5678442#22 5678442#23 5680637#6"/>
    </vehicle>
    <vehicle id="moto91" type="moto_motorcycle" depart="62.08" departLane="best">
        <route edges="-38341527#0 515885152#3 515885152#4 515885152#5 618977199#0 618977199#1 421116794 420319835#0 420319835#1 315569175#0 542169856#1 542169856#2 542169856#3 542169856#4 542169856#5 542169856#6 483704094#11 483704094#12 475559459#6 221759321#2"/>
    </vehicle>
    <vehicle id="moto93" type="moto_motorcycle" depart="63.44" departLane="best">