<?xml version="1.0" encoding="UTF-8"?>
<!-- generated on 2019-05-01 21:30:01.020618 by $Id$ via randomTrips.py
  options: 
-->
<routes xmlns:xsi="http://www.w3.org/2001/XMLSchema-instance" xsi:noNamespaceSchemaLocation="http://sumo.dlr.de/xsd/routes_file.xsd">
    <vType id="veh_passenger" vClass="passenger">
    </vType>
    <trip id="veh1" depart="0.43" departLane="best" from="123001156#0" to="122660451" type="veh_passenger"/>
    <trip id="veh2" depart="0.87" departLane="best" from="5674356" to="495491358#2" type="veh_passenger"/>
    <trip id="veh3" depart="1.30" departLane="best" from="5680199#0" to="-43242499#1" type="veh_passenger"/>
    <trip id="veh5" depart="2.17" departLane="best" from="-5680631#3" to="421116795#1" type="veh_passenger"/>
    <trip id="veh6" depart="2.60" departLane="best" from="-221586639#2" to="-639763613#1" type="veh_passenger"/>
    <trip id="veh7" depart="3.04" departLane="best" from="46835354" to="460576121" type="veh_passenger"/>
    <trip id="veh8" depart="3.47" departLane="best" from="-5680736" to="46788758" type="veh_passenger"/>
    <trip id="veh9" depart="3.91" departLane="best" from="5677949#19" to="-154513049#3" type="veh_passenger"/>
    <trip id="veh10" depart="4.34" departLane="best" from="5677924" to="51980526#2" type="veh_passenger"/>
    <trip id="veh11" depart="4.78" departLane="best" from="221696386#9" to="-5678101#7" type="veh_passenger"/>
    <trip id="veh12" depart="5.21" departLane="best" from="578129950#1" to="222258277" type="veh_passenger"/>
    <trip id="veh13" depart="5.64" departLane="best" from="-40416338#1" to="-451910414#6" type="veh_passenger"/>
    <trip id="veh14" depart="6.08" departLane="best" from="5678784#10" to="46818904#15" type="veh_passenger"/>
    <trip id="veh15" depart="6.51" departLane="best" from="5677932" to="5675915#1" type="veh_passenger"/>
    <trip id="veh16" depart="6.95" departLane="best" from="421084098" to="626315789#0" type="veh_passenger"/>
    <trip id="veh17" depart="7.38" departLane="best" from="222258273#0" to="460779250#16" type="veh_passenger"/>
    <trip id="veh18" depart="7.81" departLane="best" from="5678277#4" to="46835349#1" type="veh_passenger"/>
    <trip id="veh19" depart="8.25" departLane="best" from="5679567" to="46772625#6" type="veh_passenger"/>
    <trip id="veh21" depart="9.12" departLane="best" from="-5681578" to="221607367" type="veh_passenger"/>
    <trip id="veh23" depart="9.98" departLane="best" from="-420346447#2" to="221586639#2" type="veh_passenger"/>
    <trip id="veh24" depart="10.42" departLane="best" from="46818905#4" to="227074794#1" type="veh_passenger"/>
    <trip id="veh25" depart="10.85" departLane="best" from="222246542#0" to="107391104#13" type="veh_passenger"/>
    <trip id="veh26" depart="11.29" departLane="best" from="111781747#0" to="5682095#3" type="veh_passenger"/>
    <trip id="veh27" depart="11.72" departLane="best" from="46835349#1" to="46819926#0" type="veh_passenger"/>
    <trip id="veh28" depart="12.15" departLane="best" from="-497256111" to="5675809" type="veh_passenger"/>
    <trip id="veh29" depart="12.59" departLane="best" from="-471943034#4" to="23334074#1" type="veh_passenger"/>
    <trip id="veh30" depart="13.02" departLane="best" from="680830802#1" to="46863774#2" type="veh_passenger"/>
    <trip id="veh31" depart="13.46" departLane="best" from="442074815" to="497257603#12" type="veh_passenger"/>
    <trip id="veh32" depart="13.89" departLane="best" from="5678649" to="5677397#9" type="veh_passenger"/>
    <trip id="veh33" depart="14.33" departLane="best" from="-5681884" to="-221759317#1" type="veh_passenger"/>
    <trip id="veh34" depart="14.76" departLane="best" from="221585914#7" to="221585914#23" type="veh_passenger"/>
    <trip id="veh35" depart="15.19" departLane="best" from="-5679471" to="5705382#1" type="veh_passenger"/>
    <trip id="veh36" depart="15.63" departLane="best" from="5679904#11" to="221777100#14" type="veh_passenger"/>
    <trip id="veh37" depart="16.06" departLane="best" from="46838317#1" to="274894225" type="veh_passenger"/>
    <trip id="veh38" depart="16.50" departLane="best" from="5680913#0" to="40174799" type="veh_passenger"/>
    <trip id="veh39" depart="16.93" departLane="best" from="110155729" to="204842637#3" type="veh_passenger"/>
    <trip id="veh40" depart="17.36" departLane="best" from="450610492#18" to="221585908#5" type="veh_passenger"/>
    <trip id="veh41" depart="17.80" departLane="best" from="460584837#12" to="5680803#1" type="veh_passenger"/>
    <trip id="veh42" depart="18.23" departLane="best" from="227074781#14" to="122625672#1" type="veh_passenger"/>
    <trip id="veh43" depart="18.67" departLane="best" from="686370900" to="421755067#1" type="veh_passenger"/>
    <trip id="veh44" depart="19.10" departLane="best" from="-39612790#0" to="-227074775#2" type="veh_passenger"/>
    <trip id="veh45" depart="19.53" departLane="best" from="-420880051#1" to="46835370#3" type="veh_passenger"/>
    <trip id="veh46" depart="19.97" departLane="best" from="5677340#3" to="308340267#6" type="veh_passenger"/>
    <trip id="veh47" depart="20.40" departLane="best" from="-227074810" to="239626766" type="veh_passenger"/>
    <trip id="veh50" depart="21.70" departLane="best" from="-185196951" to="5675082#0" type="veh_passenger"/>
    <trip id="veh51" depart="22.14" departLane="best" from="479748558#1" to="451915593#1" type="veh_passenger"/>
    <trip id="veh52" depart="22.57" departLane="best" from="110345443" to="46863840#0" type="veh_passenger"/>
    <trip id="veh53" depart="23.01" departLane="best" from="-421118181#1" to="347014806#2" type="veh_passenger"/>
    <trip id="veh54" depart="23.44" departLane="best" from="308338866" to="573632388" type="veh_passenger"/>
    <trip id="veh55" depart="23.88" departLane="best" from="5679892#7" to="221585908#5" type="veh_passenger"/>
    <trip id="veh56" depart="24.31" departLane="best" from="41381890#1" to="-5680477" type="veh_passenger"/>
    <trip id="veh57" depart="24.74" departLane="best" from="5680853#0" to="5680120#2" type="veh_passenger"/>
    <trip id="veh58" depart="25.18" departLane="best" from="219964442#0" to="46863774#0" type="veh_passenger"/>
    <trip id="veh59" depart="25.61" departLane="best" from="46774534#1" to="-5677749" type="veh_passenger"/>
    <trip id="veh60" depart="26.05" departLane="best" from="5676656#0" to="455014440#1" type="veh_passenger"/>
    <trip id="veh61" depart="26.48" departLane="best" from="5676994#9" to="451413253#3" type="veh_passenger"/>
    <trip id="veh62" depart="26.91" departLane="best" from="-108166470" to="222246538#3" type="veh_passenger"/>
    <trip id="veh63" depart="27.35" departLane="best" from="-221585908#0" to="5681691#2" type="veh_passenger"/>
    <trip id="veh64" depart="27.78" departLane="best" from="5679918" to="5678784#21" type="veh_passenger"/>
    <trip id="veh65" depart="28.22" departLane="best" from="221585906#1" to="-239626767#1" type="veh_passenger"/>
    <trip id="veh66" depart="28.65" departLane="best" from="5679904#6" to="5710128#0" type="veh_passenger"/>
    <trip id="veh67" depart="29.08" departLane="best" from="-360608776" to="420567572" type="veh_passenger"/>
    <trip id="veh68" depart="29.52" departLane="best" from="-23334074#1" to="5677037#25" type="veh_passenger"/>
    <trip id="veh69" depart="29.95" departLane="best" from="5676708#3" to="-494221659#2" type="veh_passenger"/>
    <trip id="veh71" depart="30.82" departLane="best" from="110155730#2" to="5680159#3" type="veh_passenger"/>
    <trip id="veh72" depart="31.25" departLane="best" from="25564091#2" to="107391104#3" type="veh_passenger"/>
    <trip id="veh73" depart="31.69" departLane="best" from="421118179" to="5675915#4" type="veh_passenger"/>
    <trip id="veh74" depart="32.12" departLane="best" from="-5678384#2" to="221759326" type="veh_passenger"/>
    <trip id="veh76" depart="32.99" departLane="best" from="276043628#3" to="43314997#1" type="veh_passenger"/>
    <trip id="veh77" depart="33.43" departLane="best" from="-432554453#9" to="123001149#6" type="veh_passenger"/>
    <trip id="veh78" depart="33.86" departLane="best" from="221696386#10" to="46788750" type="veh_passenger"/>
    <trip id="veh79" depart="34.29" departLane="best" from="-5682164#2" to="122625672#1" type="veh_passenger"/>
    <trip id="veh81" depart="35.16" departLane="best" from="-5681578" to="5680955#0" type="veh_passenger"/>
    <trip id="veh82" depart="35.60" departLane="best" from="5679437#1" to="-40785409#0" type="veh_passenger"/>
    <trip id="veh83" depart="36.03" departLane="best" from="-573838648" to="489437292#0" type="veh_passenger"/>
    <trip id="veh84" depart="36.46" departLane="best" from="-5679829" to="-497257603#0" type="veh_passenger"/>
    <trip id="veh85" depart="36.90" departLane="best" from="5681691#0" to="463957168" type="veh_passenger"/>
    <trip id="veh86" depart="37.33" departLane="best" from="349369490" to="5677585#1" type="veh_passenger"/>
    <trip id="veh87" depart="37.77" departLane="best" from="5677945#0" to="-574211884" type="veh_passenger"/>
    <trip id="veh88" depart="38.20" departLane="best" from="-409285510#4" to="34593472#12" type="veh_passenger"/>
    <trip id="veh89" depart="38.63" departLane="best" from="25723095#1" to="40785412" type="veh_passenger"/>
    <trip id="veh90" depart="39.07" departLane="best" from="542169856#12" to="494221659#8" type="veh_passenger"/>
    <trip id="veh91" depart="39.50" departLane="best" from="658936642#1" to="-455201237#1" type="veh_passenger"/>
    <trip id="veh92" depart="39.94" departLane="best" from="227074786#6" to="227002829#3" type="veh_passenger"/>
    <trip id="veh93" depart="40.37" departLane="best" from="5679567" to="206610786#4" type="veh_passenger"/>
    <trip id="veh94" depart="40.81" departLane="best" from="-5678101#0" to="37523639" type="veh_passenger"/>
    <trip id="veh96" depart="41.67" departLane="best" from="-636728274#7" to="5681491#1" type="veh_passenger"/>
    <trip id="veh97" depart="42.11" departLane="best" from="276083330#4" to="5679892#2" type="veh_passenger"/>
    <trip id="veh98" depart="42.54" departLane="best" from="432554453#10" to="-227074781#6" type="veh_passenger"/>
    <trip id="veh99" depart="42.98" departLane="best" from="97010378#0" to="5678929#3" type="veh_passenger"/>
    <trip id="veh101" depart="43.84" departLane="best" from="5678784#18" to="-5678919#1" type="veh_passenger"/>
    <trip id="veh102" depart="44.28" departLane="best" from="38341528#4" to="108166470" type="veh_passenger"/>
    <trip id="veh103" depart="44.71" departLane="best" from="227074781#7" to="-239626769#3" type="veh_passenger"/>
    <trip id="veh104" depart="45.15" departLane="best" from="222258273#3" to="658936644#0" type="veh_passenger"/>
    <trip id="veh105" depart="45.58" departLane="best" from="110155730#2" to="5677511" type="veh_passenger"/>
    <trip id="veh106" depart="46.01" departLane="best" from="308340267#7" to="315569174" type="veh_passenger"/>
    <trip id="veh107" depart="46.45" departLane="best" from="578129950#2" to="68523765#2" type="veh_passenger"/>
    <trip id="veh109" depart="47.32" departLane="best" from="-46835364" to="221696386#9" type="veh_passenger"/>
    <trip id="veh111" depart="48.18" departLane="best" from="421752007" to="5676705" type="veh_passenger"/>
    <trip id="veh112" depart="48.62" departLane="best" from="-227074781#1" to="46788735" type="veh_passenger"/>
    <trip id="veh113" depart="49.05" departLane="best" from="420304949" to="5679758#3" type="veh_passenger"/>
    <trip id="veh114" depart="49.49" departLane="best" from="-46863774#2" to="587067526#1" type="veh_passenger"/>
    <trip id="veh115" depart="49.92" departLane="best" from="-315569176#0" to="-5681577#3" type="veh_passenger"/>
    <trip id="veh116" depart="50.36" departLane="best" from="46121854" to="495491356#1" type="veh_passenger"/>
    <trip id="veh117" depart="50.79" departLane="best" from="-573626193" to="-46863691#3" type="veh_passenger"/>
    <trip id="veh118" depart="51.22" departLane="best" from="5680167#4" to="204842637#0" type="veh_passenger"/>
    <trip id="veh119" depart="51.66" departLane="best" from="46121853#1" to="46835349#6" type="veh_passenger"/>
    <trip id="veh120" depart="52.09" departLane="best" from="249968535#2" to="46786522" type="veh_passenger"/>
    <trip id="veh121" depart="52.53" departLane="best" from="420572567" to="5682056#1" type="veh_passenger"/>
    <trip id="veh122" depart="52.96" departLane="best" from="-5678889#1" to="552015559#1" type="veh_passenger"/>
    <trip id="veh123" depart="53.39" departLane="best" from="-573838648" to="27524495" type="veh_passenger"/>
    <trip id="veh124" depart="53.83" departLane="best" from="46865765#4" to="221731898#0" type="veh_passenger"/>
    <trip id="veh125" depart="54.26" departLane="best" from="221585916#10" to="5676884#1" type="veh_passenger"/>
    <trip id="veh126" depart="54.70" departLane="best" from="-239626767#0" to="40174799" type="veh_passenger"/>
    <trip id="veh127" depart="55.13" departLane="best" from="78288188#2" to="68523765#6" type="veh_passenger"/>
    <trip id="veh128" depart="55.56" departLane="best" from="-239626769#2" to="108166470" type="veh_passenger"/>
    <trip id="veh129" depart="56.00" departLane="best" from="110155730#2" to="5681969#1" type="veh_passenger"/>
    <trip id="veh130" depart="56.43" departLane="best" from="5680024#12" to="5680419#0" type="veh_passenger"/>
    <trip id="veh131" depart="56.87" departLane="best" from="222246539#1" to="-5678246#0" type="veh_passenger"/>
    <trip id="veh132" depart="57.30" departLane="best" from="5678384#1" to="530568988#1" type="veh_passenger"/>
    <trip id="veh133" depart="57.73" departLane="best" from="46786494" to="660084150#2" type="veh_passenger"/>
    <trip id="veh134" depart="58.17" departLane="best" from="46835402#0" to="-154513052" type="veh_passenger"/>
    <trip id="veh135" depart="58.60" departLane="best" from="5678115#0" to="221725602#3" type="veh_passenger"/>
    <trip id="veh136" depart="59.04" departLane="best" from="46863840#0" to="5682184#12" type="veh_passenger"/>
    <trip id="veh137" depart="59.47" departLane="best" from="-46121848#5" to="-46818904#12" type="veh_passenger"/>
    <trip id="veh138" depart="59.91" departLane="best" from="-420584209" to="460779250#6" type="veh_passenger"/>
    <trip id="veh139" depart="60.34" departLane="best" from="122660424#0" to="46818904#4" type="veh_passenger"/>
    <trip id="veh140" depart="60.77" departLane="best" from="524340771#3" to="-682886111#1" type="veh_passenger"/>
    <trip id="veh141" depart="61.21" departLane="best" from="46818904#4" to="221585909#1" type="veh_passenger"/>
    <trip id="veh142" depart="61.64" departLane="best" from="5678756#7" to="-432554453#12" type="veh_passenger"/>
    <trip id="veh143" depart="62.08" departLane="best" from="25723095#1" to="221586639#1" type="veh_passenger"/>
    <trip id="veh144" depart="62.51" departLane="best" from="-139919720#1" to="5677211" type="veh_passenger"/>
    <trip id="veh145" depart="62.94" departLane="best" from="46819899" to="221585908#3" type="veh_passenger"/>
    <trip id="veh146" depart="63.38" departLane="best" from="5675267#0" to="460779250#16" type="veh_passenger"/>
    <trip id="veh147" depart="63.81" departLane="best" from="275303277" to="-154513056" type="veh_passenger"/>
    <trip id="veh148" depart="64.25" departLane="best" from="-25198746#0" to="5680476#2" type="veh_passenger"/>
    <trip id="veh150" depart="65.11" departLane="best" from="5678387#0" to="46786511" type="veh_passenger"/>
    <trip id="veh151" depart="65.55" departLane="best" from="221585906#5" to="5680807#1" type="veh_passenger"/>
    <trip id="veh152" depart="65.98" departLane="best" from="5677438#1" to="5679887#2" type="veh_passenger"/>
    <trip id="veh153" depart="66.42" departLane="best" from="5680476#6" to="107391104#17" type="veh_passenger"/>
    <trip id="veh154" depart="66.85" departLane="best" from="-636728274#7" to="-46121844#1" type="veh_passenger"/>
    <trip id="veh155" depart="67.28" departLane="best" from="5677017#0" to="5680487" type="veh_passenger"/>
    <trip id="veh157" depart="68.15" departLane="best" from="-46835364" to="5681787#0" type="veh_passenger"/>
    <trip id="veh158" depart="68.59" departLane="best" from="5679708#3" to="639118784#1" type="veh_passenger"/>
    <trip id="veh159" depart="69.02" departLane="best" from="5677949#26" to="5680442#2" type="veh_passenger"/>
    <trip id="veh160" depart="69.46" departLane="best" from="-221585918#12" to="5676262#7" type="veh_passenger"/>
    <trip id="veh161" depart="69.89" departLane="best" from="221607366#0" to="5681884" type="veh_passenger"/>
    <trip id="veh162" depart="70.32" departLane="best" from="5677620#1" to="5679904#4" type="veh_passenger"/>
    <trip id="veh163" depart="70.76" departLane="best" from="5677949#26" to="221585914#18" type="veh_passenger"/>
    <trip id="veh164" depart="71.19" departLane="best" from="5677047" to="-46772622#0" type="veh_passenger"/>
    <trip id="veh165" depart="71.63" departLane="best" from="-5680852" to="5678384#2" type="veh_passenger"/>
    <trip id="veh166" depart="72.06" departLane="best" from="334341973#1" to="221759317#2" type="veh_passenger"/>
    <trip id="veh167" depart="72.49" departLane="best" from="5677430#7" to="127739270#2" type="veh_passenger"/>
    <trip id="veh168" depart="72.93" departLane="best" from="-221585916#7" to="-587355768" type="veh_passenger"/>
    <trip id="veh169" depart="73.36" departLane="best" from="221601322#9" to="5679904#6" type="veh_passenger"/>
    <trip id="veh170" depart="73.80" departLane="best" from="618977202#1" to="221586643#1" type="veh_passenger"/>
    <trip id="veh171" depart="74.23" departLane="best" from="46835336#10" to="275303303#0" type="veh_passenger"/>
    <trip id="veh172" depart="74.66" departLane="best" from="654744279" to="451915591#2" type="veh_passenger"/>
    <trip id="veh173" depart="75.10" departLane="best" from="5681940#0" to="-46818904#12" type="veh_passenger"/>
    <trip id="veh175" depart="75.97" departLane="best" from="587355778#1" to="221585914#10" type="veh_passenger"/>
    <trip id="veh176" depart="76.40" departLane="best" from="-420875713#1" to="347014806#1" type="veh_passenger"/>
    <trip id="veh177" depart="76.84" departLane="best" from="542169856#1" to="221759333#0" type="veh_passenger"/>
    <trip id="veh178" depart="77.27" departLane="best" from="46772621" to="43242499#6" type="veh_passenger"/>
    <trip id="veh179" depart="77.70" departLane="best" from="227064522#2" to="46772625#1" type="veh_passenger"/>
    <trip id="veh180" depart="78.14" departLane="best" from="-658936644#16" to="535252372#3" type="veh_passenger"/>
    <trip id="veh181" depart="78.57" departLane="best" from="-111781747#1" to="5681577#0" type="veh_passenger"/>
    <trip id="veh182" depart="79.01" departLane="best" from="421116795#1" to="5674509" type="veh_passenger"/>
    <trip id="veh183" depart="79.44" departLane="best" from="5675271#4" to="489437292#7" type="veh_passenger"/>
    <trip id="veh184" depart="79.87" departLane="best" from="221777109#6" to="-40416342#0" type="veh_passenger"/>
    <trip id="veh185" depart="80.31" departLane="best" from="46863844#10" to="222247847#0" type="veh_passenger"/>
    <trip id="veh186" depart="80.74" departLane="best" from="221585914#23" to="5679708#11" type="veh_passenger"/>
    <trip id="veh187" depart="81.18" departLane="best" from="524345883" to="221753933" type="veh_passenger"/>
    <trip id="veh188" depart="81.61" departLane="best" from="221585908#1" to="276050436" type="veh_passenger"/>
    <trip id="veh189" depart="82.04" departLane="best" from="227074786#5" to="221696386#2" type="veh_passenger"/>
    <trip id="veh190" depart="82.48" departLane="best" from="-451910414#4" to="308338860" type="veh_passenger"/>
    <trip id="veh191" depart="82.91" departLane="best" from="5682004#1" to="495491358#2" type="veh_passenger"/>
    <trip id="veh192" depart="83.35" departLane="best" from="5680631#3" to="46835336#8" type="veh_passenger"/>
    <trip id="veh193" depart="83.78" departLane="best" from="221446578#3" to="460584837#8" type="veh_passenger"/>
    <trip id="veh194" depart="84.21" departLane="best" from="-108166470" to="221605483#0" type="veh_passenger"/>
    <trip id="veh195" depart="84.65" departLane="best" from="275355374" to="46786487" type="veh_passenger"/>
    <trip id="veh196" depart="85.08" departLane="best" from="46835402#1" to="40712688#4" type="veh_passenger"/>
    <trip id="veh197" depart="85.52" departLane="best" from="276080905" to="108166470" type="veh_passenger"/>
    <trip id="veh198" depart="85.95" departLane="best" from="350687715#1" to="5680852" type="veh_passenger"/>
    <trip id="veh199" depart="86.39" departLane="best" from="5677438#1" to="-5679171#6" type="veh_passenger"/>
    <trip id="veh200" depart="86.82" departLane="best" from="-360608776" to="432554453#1" type="veh_passenger"/>
    <trip id="veh201" depart="87.25" departLane="best" from="46818904#14" to="222258273#2" type="veh_passenger"/>
    <trip id="veh202" depart="87.69" departLane="best" from="5678147#3" to="5676852#3" type="veh_passenger"/>
    <trip id="veh203" depart="88.12" departLane="best" from="46865766" to="123001149#5" type="veh_passenger"/>
    <trip id="veh204" depart="88.56" departLane="best" from="-5678262#6" to="-221586637" type="veh_passenger"/>
    <trip id="veh205" depart="88.99" departLane="best" from="-59707790" to="420317173" type="veh_passenger"/>
    <trip id="veh206" depart="89.42" departLane="best" from="5678784#23" to="-420317203" type="veh_passenger"/>
    <trip id="veh207" depart="89.86" departLane="best" from="23334073" to="46838315" type="veh_passenger"/>
    <trip id="veh208" depart="90.29" departLane="best" from="-5678246#4" to="515885162#3" type="veh_passenger"/>
    <trip id="veh209" depart="90.73" departLane="best" from="40416344#0" to="183916221#5" type="veh_passenger"/>
    <trip id="veh211" depart="91.59" departLane="best" from="5675963#3" to="5677205#2" type="veh_passenger"/>
    <trip id="veh213" depart="92.46" departLane="best" from="-506650490" to="587067515" type="veh_passenger"/>
    <trip id="veh214" depart="92.90" departLane="best" from="420346499" to="-227074781#4" type="veh_passenger"/>
    <trip id="veh215" depart="93.33" departLane="best" from="-636728274#7" to="5679708#13" type="veh_passenger"/>
    <trip id="veh216" depart="93.76" departLane="best" from="311764602" to="5678115#3" type="veh_passenger"/>
    <trip id="veh218" depart="94.63" departLane="best" from="46121859" to="5710416#5" type="veh_passenger"/>
    <trip id="veh219" depart="95.07" departLane="best" from="5680199#0" to="46835336#23" type="veh_passenger"/>
    <trip id="veh220" depart="95.50" departLane="best" from="524340776#7" to="421116792" type="veh_passenger"/>
    <trip id="veh221" depart="95.94" departLane="best" from="5678278" to="460584837#7" type="veh_passenger"/>
    <trip id="veh222" depart="96.37" departLane="best" from="5680442#6" to="5676489#9" type="veh_passenger"/>
    <trip id="veh223" depart="96.80" departLane="best" from="354926644#1" to="221583273#4" type="veh_passenger"/>
    <trip id="veh225" depart="97.67" departLane="best" from="5676708#3" to="440633442" type="veh_passenger"/>
    <trip id="veh227" depart="98.54" departLane="best" from="-276202770" to="221602120" type="veh_passenger"/>
    <trip id="veh228" depart="98.97" departLane="best" from="122625703-AddedOffRampEdge" to="221777109#20" type="veh_passenger"/>
    <trip id="veh229" depart="99.41" departLane="best" from="421120405" to="-526209963#1" type="veh_passenger"/>
    <trip id="veh230" depart="99.84" departLane="best" from="-569164780" to="511768217" type="veh_passenger"/>
    <trip id="veh231" depart="100.28" departLane="best" from="497258460#0" to="-350687715#0" type="veh_passenger"/>
    <trip id="veh232" depart="100.71" departLane="best" from="23042440#0" to="456407470" type="veh_passenger"/>
    <trip id="veh233" depart="101.14" departLane="best" from="239625023" to="-686370900" type="veh_passenger"/>
    <trip id="veh234" depart="101.58" departLane="best" from="250372840#4" to="5680913#1" type="veh_passenger"/>
    <trip id="veh235" depart="102.01" departLane="best" from="460584836#1" to="515885152#3" type="veh_passenger"/>
    <trip id="veh236" depart="102.45" departLane="best" from="5679171#11" to="5677112#3" type="veh_passenger"/>
    <trip id="veh237" depart="102.88" departLane="best" from="222258278" to="-154513049#0" type="veh_passenger"/>
    <trip id="veh238" depart="103.31" departLane="best" from="221759319" to="5676937" type="veh_passenger"/>
    <trip id="veh239" depart="103.75" departLane="best" from="5678929#0" to="573632388" type="veh_passenger"/>
    <trip id="veh240" depart="104.18" departLane="best" from="249968535#0" to="5676690#5" type="veh_passenger"/>
    <trip id="veh241" depart="104.62" departLane="best" from="43242499#7" to="46818904#12" type="veh_passenger"/>
    <trip id="veh242" depart="105.05" departLane="best" from="-5680736" to="122625672#1" type="veh_passenger"/>
    <trip id="veh243" depart="105.49" departLane="best" from="276024637#25" to="-221731898#1" type="veh_passenger"/>
    <trip id="veh244" depart="105.92" departLane="best" from="221696377#6" to="496995105#0" type="veh_passenger"/>
    <trip id="veh245" depart="106.35" departLane="best" from="227074794#0" to="-5678419" type="veh_passenger"/>
    <trip id="veh246" depart="106.79" departLane="best" from="34593472#4" to="-483140982#0" type="veh_passenger"/>
    <trip id="veh247" depart="107.22" departLane="best" from="46817497" to="-221688754#4" type="veh_passenger"/>
    <trip id="veh248" depart="107.66" departLane="best" from="227064556#3" to="46137555#0" type="veh_passenger"/>
    <trip id="veh249" depart="108.09" departLane="best" from="-221586639#2" to="46863844#18" type="veh_passenger"/>
    <trip id="veh250" depart="108.52" departLane="best" from="-46121867#1" to="40416345" type="veh_passenger"/>
    <trip id="veh251" depart="108.96" departLane="best" from="-226998579" to="23334073" type="veh_passenger"/>
    <trip id="veh252" depart="109.39" departLane="best" from="-5679720" to="222246544#0" type="veh_passenger"/>
    <trip id="veh253" depart="109.83" departLane="best" from="5676531#1" to="23334073" type="veh_passenger"/>
    <trip id="veh254" depart="110.26" departLane="best" from="5675963#9" to="5678784#23" type="veh_passenger"/>
    <trip id="veh255" depart="110.69" departLane="best" from="-654744285#1" to="-420875713#1" type="veh_passenger"/>
    <trip id="veh256" depart="111.13" departLane="best" from="-221585908#0" to="455014440#1" type="veh_passenger"/>
    <trip id="veh257" depart="111.56" departLane="best" from="97010425#2" to="227064551#0" type="veh_passenger"/>
    <trip id="veh258" depart="112.00" departLane="best" from="46835357#0" to="5677438#25" type="veh_passenger"/>
    <trip id="veh259" depart="112.43" departLane="best" from="46835367#3" to="5676994#1" type="veh_passenger"/>
    <trip id="veh260" depart="112.86" departLane="best" from="5705382#0" to="-654744274#1" type="veh_passenger"/>
    <trip id="veh261" depart="113.30" departLane="best" from="-221585908#5" to="-5677695#1" type="veh_passenger"/>
    <trip id="veh262" depart="113.73" departLane="best" from="-451413253#3" to="489437292#11" type="veh_passenger"/>
    <trip id="veh263" depart="114.17" departLane="best" from="451380982#3" to="111781747#5" type="veh_passenger"/>
    <trip id="veh264" depart="114.60" departLane="best" from="497253780#2" to="5677112#6" type="veh_passenger"/>
    <trip id="veh266" depart="115.47" departLane="best" from="5675784#1" to="-46818902#1" type="veh_passenger"/>
    <trip id="veh267" depart="115.90" departLane="best" from="5678182#1" to="587355763" type="veh_passenger"/>
    <trip id="veh268" depart="116.34" departLane="best" from="-420875711" to="-221604537#1" type="veh_passenger"/>
    <trip id="veh269" depart="116.77" departLane="best" from="221585914#11" to="495491358#2" type="veh_passenger"/>
    <trip id="veh270" depart="117.21" departLane="best" from="587067519" to="275303244" type="veh_passenger"/>
    <trip id="veh271" depart="117.64" departLane="best" from="515885162#4" to="-420567574" type="veh_passenger"/>
    <trip id="veh272" depart="118.07" departLane="best" from="489437292#11" to="46835370#2" type="veh_passenger"/>
    <trip id="veh273" depart="118.51" departLane="best" from="-420346497" to="5677338" type="veh_passenger"/>
    <trip id="veh274" depart="118.94" departLane="best" from="5678784#27" to="46818468#9" type="veh_passenger"/>
    <trip id="veh275" depart="119.38" departLane="best" from="-432554453#9" to="658936639#0" type="veh_passenger"/>
    <trip id="veh276" depart="119.81" departLane="best" from="5677037#19" to="227064534#6" type="veh_passenger"/>
    <trip id="veh277" depart="120.24" departLane="best" from="275303293#0" to="23168562" type="veh_passenger"/>
    <trip id="veh278" depart="120.68" departLane="best" from="420318567" to="227064513#0" type="veh_passenger"/>
    <trip id="veh279" depart="121.11" departLane="best" from="5678784#22" to="5678442#3" type="veh_passenger"/>
    <trip id="veh280" depart="121.55" departLane="best" from="-420583304#0" to="587067526#1" type="veh_passenger"/>
    <trip id="veh281" depart="121.98" departLane="best" from="46818905#3" to="5678756#9" type="veh_passenger"/>
    <trip id="veh282" depart="122.42" departLane="best" from="497258460#0" to="347309380#2" type="veh_passenger"/>
    <trip id="veh283" depart="122.85" departLane="best" from="557041245" to="587355778#0" type="veh_passenger"/>
    <trip id="veh284" depart="123.28" departLane="best" from="122625696" to="5678246#9" type="veh_passenger"/>
    <trip id="veh285" depart="123.72" departLane="best" from="421116794" to="420346484#1" type="veh_passenger"/>
    <trip id="veh286" depart="124.15" departLane="best" from="276024637#23" to="5675937" type="veh_passenger"/>