<?xml version="1.0" encoding="UTF-8"?>

<!-- generated on Wed May  1 21:30:06 2019 by Eclipse SUMO duarouter Version v1_0_0+0075-0a525fa
<configuration xmlns:xsi="http://www.w3.org/2001/XMLSchema-instance" xsi:noNamespaceSchemaLocation="http://sumo.dlr.de/xsd/duarouterConfiguration.xsd">

    <input>
        <net-file value="osm.net.xml"/>
        <route-files value="osm.truck.trips.xml"/>
    </input>

    <output>
        <output-file value="osm.truck.rou.xml"/>
        <alternatives-output value="osm.truck.rou.alt.xml"/>
    </output>

    <time>
        <begin value="0"/>
        <end value="3600.0"/>
    </time>

    <report>
        <no-warnings value="true"/>
        <ignore-errors value="true"/>
        <no-step-log value="true"/>
    </report>

</configuration>
-->

<routes xmlns:xsi="http://www.w3.org/2001/XMLSchema-instance" xsi:noNamespaceSchemaLocation="http://sumo.dlr.de/xsd/routes_file.xsd">
    <vType id="truck_truck" vClass="truck"/>
    <vehicle id="truck0" type="truck_truck" depart="0.00" departLane="best">
        <route edges="46835349#6 46835344#1 46835344#2 -46121848#4 -46121848#2 -46121848#1 -46121848#0 -420572564 -420572567 -420572566 -5682051 -420572568 46121849 421120403 420569583 639805149 23334074#0 23334074#1 23334074#2 420567582 420567577 420567578 420567573 420567579 37396284 5680024#11 497149598#1 -221603657"/>
    </vehicle>
    <vehicle id="truck1" type="truck_truck" depart="0.96" departLane="best">
        <route edges="219964428#4 219964428#5 219964428#6 219964428#7 219964428#8 219964428#9 219964428#10 219964428#11 219964428#12 219964428#13 219964428#14 219964428#15 219964428#16 219964428#17 219964428#18 586174692 -5677270 221688754#0 221688754#2 221688754#3 221688754#4 440633382#0 440633382#1 -227074763 -221585916#12 -221585916#11 -221585916#10 -221585916#9 -221585916#8 -221585916#7 -221585916#6 -221585916#5 -221585916#4 -221585916#3 -221585916#2 -221585916#1 -497260896#1 -497260896#0 587355768 -221777103 -46818904#19 -46818904#18 5678442#28 5678442#29 5678442#31 112168176"/>
    </vehicle>
    <vehicle id="truck2" type="truck_truck" depart="1.91" departLane="best">
        <route edges="5675523 654744279 460584837#4 460584837#5 460584837#6 46818468#2 46818468#3 46818468#4 46818468#5 420875699 420875707#0 420875707#1 420875709#0 420875709#1 227074779#0 227074779#1 495491355#0 495491355#1"/>
    </vehicle>
    <vehicle id="truck3" type="truck_truck" depart="2.87" departLane="best">
        <route edges="5680429#0 46788737 222246981#1 421755067#0 421755067#1 421755066 221723366 139919720#0 139919720#1 420880046#0 420880046#1 420880045 473475839 527223926 -222279148 420880044 420880042#0 420880042#1 420880041 420880039 451915588 496982424 451915590 451915592 -222258277 451915594#0 451915594#1 497382067#0 497382067#1 452286949#1 97010425#0 97010425#1 97010425#2 154508307 420583320 68523758 5677899#1 5677899#2 68523776-AddedOnRampEdge 68523776 97010373#0 97010373#1 -420584214#1"/>
    </vehicle>
    <vehicle id="truck4" type="truck_truck" depart="3.82" departLane="best">
        <route edges="276043635 276043633 497258437#2 497258437#3 497258437#4 497258437#5 497258437#6 221759320#34 221759320#35 221759329 5680880#0 5680880#1 5680880#2 5680880#3 5680880#4 421116791 535252392 421116792 421116789#0 421116789#1 421116789#2 37624370#1 421116788 221688254 222246285#0 222246285#1 222246285#2 221696386#0 221696386#1 221696386#2 221696386#3 221696386#4 221696386#5 221696386#6 221696386#7 221696386#8 221696386#9 221696386#10 221696386#11 221696386#12 221696386#13 221696386#14 221696386#15 587355778#0 587355778#1 587355778#2 587355778#3 227074776#0 227074776#1 227074776#2 227074776#3 227074776#4 -227064529#1 -227064529#0 221753949#0 221753949#1 221753936#0 5678434 -221753935"/>
    </vehicle>
    <vehicle id="truck5" type="truck_truck" depart="4.78" departLane="best">
        <route edges="-587067515 -46838322 221602120 516666632 5677945#0 5677945#1 262798838 308338860 40785412 40785410#0 40785410#1 227074809 420346441 420346448#1 420346448#2 420346448#3 420346448#4 420346446 420346439 420346447#1 420346447#2 420346444#1 587355787#0 587355787#1 587355787#2 587355787#3 524340771#0 524340771#1 524340771#2 524340771#3 524340771#4 524340771#6 524340771#7 587355786 222254952#0 222254952#1 40416344#0 40416344#1 5680646 46137501#1 455014440#0 455014440#1 221723367 420880635 288862240#0 288862240#1 288862240#2 288862240#3 288862240#4 288862240#5 288862240#6 288862240#7 288862240#8 -46818468#5 -46818468#4 -46818468#3 -46818468#2 -46818468#1 -46818468#0 78288188#0 78288188#1 78288188#2 78288188#3 78288188#4 5705730 46141624 420886403"/>
    </vehicle>
    <vehicle id="truck6" type="truck_truck" depart="5.73" departLane="best">
        <route edges="-221586643#1 -221586643#0 -221759328#3 -221759328#2 -221759328#1 -221759328#0 -351479503#3 -351479503#2 -351479503#1 -351479503#0 497259892#0 497259892#1 497259892#2 497259892#3 497259892#4 46774534#0 46774534#1 46774534#2 46774534#3 46774534#4 46774534#5 46774534#6 46774534#7 46774534#8 420304899 420319832#0 420319832#1 420319832#2 420319832#3 420319832#4 420319832#5 420319832#6 420319832#7 420319832#8 420319832#9 420319832#10 420319832#11 420319832#12 420319832#13 420319834#0 420319834#1 420319834#2 420319831#1 421116787#0 421116787#1 421116787#2 421116787#3 421116785 420319836#0 420319836#1 420319836#2 420319836#3 680852624 221759333#0 221759333#1 497254142 542169858 420875685 420875672 420875656#0 420875656#1 420875678 420875696 542169861#0 542169861#1 420883011 222251427 496984334 -59707790"/>
    </vehicle>
    <vehicle id="truck7" type="truck_truck" depart="6.69" departLane="best">
        <route edges="46863648#2 46863648#3 497257926#3 497257926#4 107391104#0 107391104#1 107391104#3 107391104#4 107391104#5 107391104#7 107391104#8 107391104#9 107391104#11 107391104#12 107391104#13 107391104#14 107391104#15 107391104#16 654744274#6 654744274#7 227064552 440633451 421149634 420875672 420875656#0 420875656#1 420875678 420875696 542169861#0 542169861#1 420883011 222251427 496984334 46772622#0 46772622#1 452284609"/>
    </vehicle>
    <vehicle id="truck8" type="truck_truck" depart="7.64" departLane="best">
        <route edges="-587067527#1 222246542#3 222246542#4 222246542#5 -350687715#1 -350687715#0 -221688255#1 -221688255#0 497256109 221696378#0 221696378#1 315569175#1 315569175#2 315569175#3 315569175#4 315569175#5 46786517"/>
    </vehicle>
    <vehicle id="truck9" type="truck_truck" depart="8.60" departLane="best">
        <route edges="5678101#14 5678101#15 5678101#16 5677049 -221585918#12 -221585918#11 -221585918#10 -221585918#9 -221585918#8 -221585918#7 -221585918#6 -221585918#5 -221585918#4 -221585918#2 -221585918#1 -221585918#0 221585913 -221753948#2 -221753948#1 -221753948#0 -221753933 -221753950 221753947 -420315112 -221688252 497256111 497256112 221688255#0 221688255#1 350687715#0 350687715#1 587355756 -221696380#0 -587067526#2 -587067526#1 -587067526#0 -23334091#3 -23334091#2 -23334091#1 -23334091#0 -46818468#8 -46818468#7 -46818468#6 -46818468#5 -46818468#4 -46818468#3 -46818468#2 -46818468#1 -46818468#0 5678919#0 5678919#1 -574211884 -5674502#3 -5674502#2 -5674502#1 154513049#0 -5677150#1 -154513050#0"/>
    </vehicle>
    <vehicle id="truck10" type="truck_truck" depart="9.55" departLane="best">
        <route edges="5677949#8 5676852#0 107391104#13 46818468#5 46818468#6 46818468#7 46818468#8 46818468#9 420875712 315569176#1 420875713#1 227064556#0 227064556#1 451915591#4 23334064 515885152#3 515885152#4"/>
    </vehicle>
    <vehicle id="truck11" type="truck_truck" depart="10.51" departLane="best">
        <route edges="221777103 221585907#0 221585907#1 221585907#2 221585907#3 -221753935 -221753949#1 -221753949#0 227064529#0 227064529#1 -227074776#4 -227074776#3 -227074776#2 -227074776#1 -227074776#0 -587355778#3 -587355778#2 -587355778#1 -587355778#0 -68325083#2 -68325083#1 -68325083#0 -227074775#2 -227074775#1 -227074775#0 -5705730 -78288188#4 -78288188#3 -78288188#2 -78288188#1 -78288188#0 5678919#0 5678919#1 464137215 222258273#0 222258273#1 222258273#2 222258273#3 222258273#4 222258273#5 222258273#6 222258273#7 222258273#8 222258273#9 -222247847#2 -222247847#1 -222247847#0 -46788744#2 -46788744#1 -46788744#0 496990716 46121873#0 46121873#1 46121873#2 -5676937"/>
    </vehicle>
    <vehicle id="truck12" type="truck_truck" depart="11.46" departLane="best">
        <route edges="578129950#1 46863844#22 46863844#23 222254951#0 222254951#1 451962063 37396284 455014438 420572575 221604539 222248833 -222246978 -386201385 -460576121 -630677037 -630677041 -460576120 -221696387 -420572573 -420572572 -497561531#0 -495315410 -455201237#1 -455201237#0 -675320846 -46137554#1 -46137554#0 23168561 222258278 222258268"/>
    </vehicle>
    <vehicle id="truck13" type="truck_truck" depart="12.42" departLane="best">
        <route edges="-420346447#2 -420346447#1 -420346447#0 464551540#0 464551540#1 464551540#2 464551540#3 420346490#0 420346490#1 420346490#2 420346490#3 491160987 420346485 446800952#0 446800952#1 420584902#0 420584902#1 420883009#0 420883009#1 420883007#0 420883007#1 222266013 620132897 420883003 -420880633 -222254955 40416344#0 40416344#1 5680646 46137501#1 455014440#0 455014440#1 221723367 420880635 288862240#0 288862240#1 288862240#2 288862240#3 288862240#4 288862240#5 288862240#6 288862240#7 288862240#8 420875699 420875707#0 420875707#1 420875709#0 420875709#1 227074779#0 227074779#1 495491356#1 495491356#2 495491356#3 5676994#10 5676994#11 5676994#12 5676994#13 5676994#14 5676994#15 -432552978 -432552974"/>
    </vehicle>
    <vehicle id="truck14" type="truck_truck" depart="13.37" departLane="best">
        <route edges="5678919#0 5678919#1 464137215 222258273#0 222258273#1 222258273#2 222258273#3 222258273#4 222258273#5 222258273#6 222258273#7 222258273#8 222258273#9 -222247847#2 -222247847#1 -222247847#0 -46788744#2 -46788744#1 -46788744#0 496990716 46121873#0 46121873#1 46818463"/>
    </vehicle>
    <vehicle id="truck15" type="truck_truck" depart="14.33" departLane="best">
        <route edges="5677950#5 5677950#6 -221585916#9 -221585916#8 -221585916#7 -221585916#6 -497257603#9 -497257603#8 -497257603#5 -497257603#4 -497257603#3 -497257603#2 -497257603#1 -497257603#0 -497257600 -206610786#19 -206610786#18 -206610786#17 -206610786#16 -206610786#15 -206610786#14 -206610786#13 -206610786#10 -206610786#7 -206610786#6 -206610786#5 -206610786#4 -206610786#1 -206610786#0 -682402640 -497253779 -682402388 -682402389 -497253780#8 -497253780#7 -497253780#6 -497253780#5 -497253780#4 654744274#2 654744274#3 654744274#4 654744274#5 654744274#6 654744274#7 227064552 440633451 421149634 420875672 420875656#0 420875656#1 420875678 5675664#0 5675664#1 5675664#2"/>
    </vehicle>
    <vehicle id="truck16" type="truck_truck" depart="15.28" departLane="best">
        <route edges="432552979#1 432552980#0 432552980#1 432552981#0 432552981#1 432552974 432552978 432552966#0 432552966#1 432552966#2 432552966#3 221696386#3 221696386#4 221696386#5 221696386#6 221696386#7 221696386#8 221696386#9 497257926#0 497257926#1 497257926#2 497257926#3 497257926#4 107391104#0 107391104#1 107391104#3 107391104#4 107391104#5 107391104#7 107391104#8 107391104#9 107391104#11 107391104#12 107391104#13 107391104#14 107391104#15 107391104#16 107391104#17 107391104#18 107391104#19 107391104#20 107391104#21 107391104#22 107391104#23 107391104#24 107391104#25 107391104#26 107391104#27 493933673#0 493933673#1 420512627 110155730#0 110155730#2 421754837 511768217 456391963#0 456391963#1 456391963#2 420571176#1 68325081 420571181 420572573 221696387 460576120 630677041 630677037"/>
    </vehicle>
    <vehicle id="truck17" type="truck_truck" depart="16.24" departLane="best">
        <route edges="5678387#2 -206610786#15 -206610786#14 -206610786#13 -206610786#10 -206610786#7 -206610786#6 -206610786#5 -206610786#4 -206610786#1 -206610786#0 -682402640 -497253779 -682402388 -682402389 -497253780#8 -497253780#7 -497253780#6 -497253780#5 -497253780#4 -497253780#3 -497253780#2 -497253780#1 -497253780#0 -37394900 -37394899#5 -37394899#4 -37394899#3 -37394899#2 -37394899#1 -37394899#0 -37394898#4 -37394898#3 -37394898#2 -37394898#1 -37394898#0 421121616 421121610 456391963#0 456391963#1 456391963#2 420571176#1 68325081 420571181 420571192 420571183 78288187#0 78288187#1 421120405 227074797#0 227074797#1 464255706#0 464255706#1 464255706#2 420571187 420571184 -227064517 5680049#0 5680049#1 5680167#7 5680167#8 5680167#9 5677340#2 46835336#19 46835336#20 46835336#21"/>
    </vehicle>
    <vehicle id="truck18" type="truck_truck" depart="17.19" departLane="best">
        <route edges="5679757 227064535#5 5675809 123001156#2 123001156#3 450814751 40416345 587355787#2 587355787#3 524340771#0 524340771#1 524340771#2 524340771#3 524340771#4 524340771#6 524340771#7 587355786 222254952#0 222254952#1 40416344#0 40416344#1 5680646 46137501#1 455014440#0 455014440#1 221723367 420880635 288862240#0 288862240#1 288862240#2 288862240#3 288862240#4 288862240#5 -654744274#6 -654744274#5 -654744274#4 -654744274#3 -654744274#2 497253780#4 464137214#3"/>
    </vehicle>
    <vehicle id="truck19" type="truck_truck" depart="18.15" departLane="best">
        <route edges="500452656#2 497257601 -497257600 -206610786#19 -206610786#18 -206610786#17 -206610786#16 -206610786#15 -206610786#14 -206610786#13 -206610786#10 -206610786#7 -206610786#6 -206610786#5 -206610786#4 -206610786#1 -206610786#0 -682402640 -497253779 -682402388 -682402389 -497253780#8 -497253780#7 46818468#3 46818468#4 46818468#5 46818468#6 46818468#7 46818468#8 46818468#9 420875712 315569176#1 420875713#1 227064556#0 227064556#1 227064556#2 227064556#3 227064556#5 227064553 420584215 221759323#1 221759323#2 335394629 497258436 335394630 -227064555#5 -227064555#4"/>
    </vehicle>
    <vehicle id="truck20" type="truck_truck" depart="19.10" departLane="best">
        <route edges="-636728275 5677049 -221585918#12 -221585918#11 -221585918#10 -221585918#9 -221585918#8 -221585918#7 -221585918#6 -221585918#5 -221585918#4 -221585918#2 -221585918#1 -221585918#0 221585913 -221753948#2 -221753948#1 -221753948#0 -221753933 -221753950 221753947 -420315112 -221688252 497256111 497256112 221688255#0 221688255#1 221688254 222246285#0 222246285#1 222246285#2 221696386#0 221696386#1 221696386#2 221696386#3 221696386#4 221696386#5 221696386#6 221696386#7 221696386#8 221696386#9 221696386#10 221696386#11 221696386#12 221696386#13 221696386#14 221696386#15 421123037 587355763 587355765 -221795719#1 -221795719#0 -46818902#0 420884512 420884510 78288186 221607367"/>
    </vehicle>
    <vehicle id="truck21" type="truck_truck" depart="20.06" departLane="best">
        <route edges="-37195087#2 -37195087#1 493933673#0 493933673#1 420512627 221723366 619552358 5681199#0 5681199#1 5681199#2 5681199#3 145079213#2"/>
    </vehicle>
    <vehicle id="truck22" type="truck_truck" depart="21.01" departLane="best">
        <route edges="-420875713#0 315569174 496980629#0 496980629#1 420319835#0 420319835#1 315569175#0 315569175#1 315569175#2 315569175#3 315569175#4 315569175#5 315569175#6 420315111#0 420315111#1 421084097 420304910#0 420304910#1 420304910#2 420304890#0 420304890#1 46865764#0 46865764#2 46865764#3 46865764#4 46865764#5 46865764#6 46865764#7 46865764#8 46865764#9 46865764#10 5680120#6 5680120#7 221586639#1 221586639#2"/>
    </vehicle>
    <vehicle id="truck23" type="truck_truck" depart="21.97" departLane="best">
        <route edges="46835336#6 46835336#7 46835336#8 46835336#9 46835336#10 46835336#11 46835336#12 23334074#0 23334074#1 23334074#2 420567582 420567577 420567578 420567573 420567579 37396284 455014438 420572575 221604539 222248833 -222246978 -386201385 -460576121 -630677037 -630677041 -460576120 -221696387 -420572573 420571186 221605483#0 221605483#1 421754612 420571190#1 46788744#0 46788744#1 46788744#2 222247847#0 222247847#1 222247847#2 -420886405 -222258273#8 -222258273#7 -222258273#6 -222258273#5 -222258273#4 -222258273#3 -222258273#2 -222258273#1 -222258273#0 -464137215 -5678919#1 -5678919#0 78288188#0 78288188#1 78288188#2 78288188#3 78288188#4 5705730 227074775#0 227074775#1 227074775#2 68325083#0 68325083#1 68325083#2 587355778#0 587355778#1 587355778#2 587355778#3 227074776#0 227074776#1 227074776#2 227074776#3 227074776#4 -227064529#1 -227064529#0 221753949#0 221753949#1 221753935 -221585907#3 -221585907#2 -221585907#1 -221585907#0 -587355768 5675992 276145111 276145117#0 276145117#1 471943034#0 471943034#1 471943034#2 471943034#3 471943034#4 321542908 682886111#0 227074787#0 227074787#2 682886115#0 682886115#1 227074786#0 227074786#2 227074786#3 227074786#4 227074786#5 227074786#6 227074786#7 227074786#8 227074786#9 227074786#10 227074786#15"/>
    </vehicle>
    <vehicle id="truck24" type="truck_truck" depart="22.92" departLane="best">
        <route edges="227064531#2 222246284 421116791 535252392 421116792 421116789#0 421116789#1 421116789#2 37624370#1 421116788 221688254 222246285#0 222246285#1 222246285#2 221696386#0 221696386#1 221696386#2 221696386#3 221696386#4 221696386#5 221696386#6 221696386#7 221696386#8 221696386#9 221696386#10 221696386#11 221696386#12 206610786#15 206610786#16 206610786#17 206610786#18 206610786#19 497257600 497257603#0 497257603#1 497257603#2 497257603#3 497257603#4 497257603#5 497257603#8 497257603#9 221585916#6 221585916#7 221585916#8 221585916#9 221585916#10 221585916#11 221585916#12 227074763 -440633382#1 -440633382#0 5675586 -227074765#0 -68523760#2"/>
    </vehicle>
    <vehicle id="truck25" type="truck_truck" depart="23.88" departLane="best">
        <route edges="183916203#0 183916203#1 183916203#2 608794060#0 46863844#19 46863844#20 46863844#21 578129950#2 227064523#4 227064523#5 227064523#6 46835349#0 46835349#1 5678784#12 5678784#13 5677160#1 440633404#3 5681940#2"/>
    </vehicle>
    <vehicle id="truck26" type="truck_truck" depart="24.83" departLane="best">
        <route edges="46846379#0 460569807#4 420346441 420346448#1 420346448#2 420346448#3 420346448#4 420346446 420346439 420346447#1 420346447#2 420346444#1 587355787#0 587355787#1 587355787#2 587355787#3 524340771#0 524340771#1 524340771#2 524340771#3 524340771#4 524340771#6 524340771#7 587355786 222254952#0 222254952#1 40416344#0 40416344#1 5680646 46137501#1 455014440#0 455014440#1 221723367 420880635 288862240#0 288862240#1 288862240#2 288862240#3 288862240#4 288862240#5 288862240#6 288862240#7 288862240#8 420875699 420875707#0 420875707#1 420875709#0 420875709#1 227074779#0 227074779#1 495491356#1 495491356#2 221696386#8 221696386#9 221696386#10 221696386#11 221696386#12 221696386#13 221696386#14 46818904#5 46818904#6 46818904#7 46818904#8 46818904#9 46818904#10 46818904#11"/>
    </vehicle>
    <vehicle id="truck27" type="truck_truck" depart="25.79" departLane="best">
        <route edges="-5675937 5679854#3 5679854#4 5679854#5 680852336 221753933 221753948#0 221753948#1 221753948#2 -221585913 221585918#0 221585918#1 221585918#2 221585918#4 221585918#5 221585918#6 221585918#7 221585918#8 221585918#9 5675610"/>
    </vehicle>
    <vehicle id="truck28" type="truck_truck" depart="26.74" departLane="best">
        <route edges="-497257603#8 -497257603#5 -497257603#4 -497257603#3 -497257603#2 -497257603#1 -497257603#0 -497257600 -206610786#19 5676994#2 5676994#3 5676994#4 5676994#5 5676994#6 5676994#7 5676994#8 5676994#9 5676994#10 5676994#11 5676994#12 5676994#13 5676994#14 5676994#15 5676994#16 5676994#17 5676994#18 221696381#0 221696381#1 221696381#2 497256110#0 497256110#1 497256109 221696378#0 221696378#1 315569175#1 315569175#2 315569175#3 315569175#4 315569175#5 315569175#6 420315111#0 420315111#1 421084097 420304910#0 420304910#1 5679904#5 5679904#6 5679904#7 5679904#8 23334061#5 23334061#6"/>
    </vehicle>
    <vehicle id="truck29" type="truck_truck" depart="27.70" departLane="best">
        <route edges="680830803 420346486#0 420346486#1 420346488#0 420346488#1 420346488#2 420346490#0 420346490#1 420346490#2 420346490#3 491160987 420346485 446800952#0 446800952#1 420584902#0 420584902#1 420883009#0 420883009#1 420883007#0 420883007#1 222266013 620132897 420883003 -420880633 -222254955 -420880629 -420567581 -420567574 -420567572 473475837#0 473475837#1 46863691#5"/>
    </vehicle>
    <vehicle id="truck30" type="truck_truck" depart="28.65" departLane="best">
        <route edges="451910413#2 221759317#1 221759317#2 5676262#7 5676262#8 -46865764#6 -46865764#5 -46865764#4 -46865764#3 -46865764#2 -46865764#0 -497256596 -497256597 46774534#6 46774534#7 46774534#8 420304899 420319832#0 420319832#1 420319832#2 420319832#3 420319832#4 420319832#5 420319832#6 420319832#7 420319832#8 420319832#9 420319832#10 420319832#11 420319832#12 450610492#26 450610492#27 497256111"/>
    </vehicle>
    <vehicle id="truck31" type="truck_truck" depart="29.61" departLane="best">
        <route edges="5678784#15 5678784#16 5678784#17 5678784#18 5678784#19 23334074#2 420567582 420567577 420567578 420567573 420567579 420567575 221603657 420567576 420567580 420567572 420567574 420567581 420880629 222254955 420880633 221759331#1 421151334#1 420880634 420880630 420883015 496984337 420883012 420883010 420875688 420875687 204843025#0 204843025#1 542169859 420875693#1 420875693#2 221759326 496980629#0 496980629#1 420319835#0 420319835#1 315569175#0 542169856#1 542169856#2 542169856#3 542169856#4 542169856#5 542169856#6 542169856#7 542169856#8 542169856#9 542169856#10 542169856#11 542169856#12 542169856#13 542169856#14 542169856#15 5677397#6 5677397#7 5677397#8 5677397#9"/>
    </vehicle>
    <vehicle id="truck32" type="truck_truck" depart="30.56" departLane="best">
        <route edges="-654744274#2 497253780#4 497253780#5 497253780#6 497253780#7 497253780#8 682402389 682402388 497253779 682402640 206610786#0 206610786#1 206610786#4 206610786#5 206610786#6 206610786#7 206610786#10 206610786#13 206610786#14 221696386#13 221696386#14 221696386#15 587355778#0 587355778#1 587355778#2 587355778#3 227074776#0 227074776#1 227074776#2 227074776#3 227074776#4 -227064529#1 -227064529#0 221753949#0 221753949#1 221753936#0 5678434 -221753935 -221753949#1"/>
    </vehicle>
    <vehicle id="truck33" type="truck_truck" depart="31.52" departLane="best">
        <route edges="221696379 -587067527#2 -587067527#1 -587067527#0 221696386#0 221696386#1 221696386#2 221696386#3 221696386#4 221696386#5 221696386#6 221696386#7 221696386#8 221696386#9 221696386#10 221696386#11 221696386#12 206610786#15 206610786#16 206610786#17 206610786#18 206610786#19 497257600 497257603#0 497257603#1 497257603#2 497257603#3 497257603#4 221777109#1 221777109#2 221777109#3 5677950#4 221585914#22 221585914#23"/>
    </vehicle>
    <vehicle id="truck34" type="truck_truck" depart="32.47" departLane="best">
        <route edges="-5681578 5681787#1 5680167#8 46835367#2 46835367#3 46835367#4 -46121844#0 -5678318 46121868 221759319 221759330#0 221759330#1 221759330#2 420567582 420567577 420567578 420567573 420567579 420567575 221603657 420567576 420567580 420567572 420567574 420567581 420880629 222254955 420880633 221759331#1 421151334#1 420880634 420880630 420883015 496984337 420883012 420883010 420875688 420875687 204843025#0 204843025#1 542169859 420875693#1 420875693#2 221759326 496980629#0 496980629#1 420319835#0 420319835#1 315569175#0 315569175#1 315569175#2 315569175#3 315569175#4 475559035 475559459#0 475559459#1 222246286#4 479748557#14 5682184#13"/>
    </vehicle>
    <vehicle id="truck35" type="truck_truck" depart="33.43" departLane="best">
        <route edges="5680024#1 5680024#2 5680024#3 5680024#4 5680167#14 23334074#1 23334074#2 420567582 420567577 420567578 420567573 420567579 420567575 221603657 420567576 420567580 420567572 420567574 420567581 420880629 222254955 420880633 221759331#1"/>
    </vehicle>
    <vehicle id="truck36" type="truck_truck" depart="34.38" departLane="best">
        <route edges="5680972#0 221696377#1 420319836#3 680852624 -420875711 -46818468#8 -46818468#7 -46818468#6 -46818468#5 -46818468#4 -46818468#3 -46818468#2 -46818468#1 -46818468#0 78288188#0 78288188#1 78288188#2 78288188#3 78288188#4 5679460#0 39974314"/>
    </vehicle>
    <vehicle id="truck37" type="truck_truck" depart="35.34" departLane="best">
        <route edges="183103118#0 183103118#1 183103118#2 5678784#17 5678784#18 5678784#19 23334074#2 420567582 420567577 420567578 420567573 420567579 37396284 455014438 420572575 221604539 222248833 -222246978 -386201385 -460576121 -630677037 -630677041 -460576120 -221696387 -420572573 420571186 221605483#0 221605483#1 421754612 420571190#1 496990716 46121873#0 46121873#1 46121873#2 5675963#0 5675963#1 5675963#2 5675963#3 5675963#4 5675963#5 5675963#6 5675963#7 5675963#8 5675963#9 460584836#0 460584836#1 204842637#0 204842637#1 204842637#3"/>
    </vehicle>
    <vehicle id="truck38" type="truck_truck" depart="36.29" departLane="best">
        <route edges="451915591#1 -420584203 -420584209 -420584211 -421149636#1 -421149636#0 204843025#0 204843025#1 542169859 420875693#1 420875693#2 221759326 496980629#0 496980629#1 420319835#0 420319835#1 315569175#0 315569175#1 315569175#2 315569175#3 315569175#4 315569175#5 315569175#6 420315111#0 420315111#1 421084097 420304910#0 420304910#1 420304910#2 420304890#0 420304890#1 46865764#0 46865764#2 46865764#3 46865764#4 46865764#5 46865764#6 46865764#7 46865764#8 46865764#9 46865764#10 5680120#6 221585908#5"/>
    </vehicle>
    <vehicle id="truck39" type="truck_truck" depart="37.25" departLane="best">
        <route edges="23334091#2 23334091#3 221696377#0 221696377#1 420319836#3 680852624 221759333#0 221759333#1 497254142 542169858 420875685 420875672 420875656#0 420875656#1 420875678 420875696 542169861#0 542169861#1 420883011 222251427 420883013 -420880630 -420880632 222279148 -527223926 -221731899 -420880045 -420880037 -420880046#0 -139919720#1 -139919720#0 500534706 110155730#0 110155730#2 421754837 511768217 456391963#0 456391963#1 456391963#2 110155732"/>
    </vehicle>
    <vehicle id="truck40" type="truck_truck" depart="38.20" departLane="best">
        <route edges="78288187#0 78288187#1 421120405 227074797#0 227074797#1 464255705 221694583#0 221694583#1 440633365 440633365-AddedOffRampEdge 455211317#0 455211317#1 455211317#2 221694584 221604538 5679842 440633375 421121608 420567573 420567579 420567575 221603657 420567576 420567580 420567572 420567574 420567581 420880629 222254955 420880633 221759331#1 421151334#1 420880044 420880042#0 420880042#1 420880041 420880039 451915588 496982424 451915590 451915592 -222258277 451915594#0 451915594#1 497382067#0 497382067#1 452286949#1 97010425#0 97010425#1 97010425#2 154508307 420583320 68523758 421118179"/>
    </vehicle>
    <vehicle id="truck42" type="truck_truck" depart="40.11" departLane="best">
        <route edges="-432552966#2 -432552966#1 -432552966#0 5676994#16 5676994#17 5676994#18 221696381#0 221696381#1 221696381#2 497256110#0 497256110#1 497256109 221696378#0 221696378#1 420319834#0 420319834#1 420319834#2 420319831#1 421116787#0 421116787#1 421116787#2 421116787#3 421116785 420319836#0 420319836#1 420319836#2 420319836#3 680852624 221759333#0 221759333#1 497254142 542169858 420875685 420875672 420875656#0 420875656#1 420875678 420875696 542169861#0 542169861#1 420883011 222251427 420883013 -420880630 -420880632 -421151334#1 -421151334#0 -420880633 -222254955 -420880629 -420567581 -420567574 -420567572 -420567580 -420567576 -221603657 -420567575 -420567579 -420567573 -420567578 -420567577 -420567582 -23334074#2 -23334074#1 -23334074#0 46835336#13 46835336#14 46835336#15 46835336#17 46835336#18 5677340#3 5679816 46835362"/>
    </vehicle>
    <vehicle id="truck43" type="truck_truck" depart="41.07" departLane="best">
        <route edges="-232270200#0 -587355743 -239626768 -232270204 -420886409 -420886410#0 420886411 222248832#1 222248832#2 222248832#3 5676937 5675963#0 5675963#1 5675963#2 5675963#3 5675963#4 5675963#5 5675963#6 5675963#7 5675963#8 5675963#9 460584836#0 460584836#1 460584837#1 460584837#2 460584837#3 460584837#4 460584837#5 460584837#6 46818468#2 46818468#3 46818468#4 46818468#5 46818468#6 46818468#7 46818468#8 23334091#0 23334091#1"/>
    </vehicle>
    <vehicle id="truck44" type="truck_truck" depart="42.02" departLane="best">
        <route edges="68523776-AddedOnRampEdge 68523776 97010373#0 97010373#1 -420584214#1 -421118181#1 -421118181#0 -420584208 -420584213 -420584207 -420584203 -420584209 -420584211 -421149636#1 -421149636#0 204843025#0 204843025#1 542169859 420875693#1 420875693#2 -420875711 23334091#0 23334091#1 5682004#0 447792828#2 447792828#3"/>
    </vehicle>
    <vehicle id="truck45" type="truck_truck" depart="42.98" departLane="best">
        <route edges="625647896#1 625647896#2 5681544#1 -525679230#1 -525679230#0 483704093 451915595 483704094#0 -420584213 -420584207 -420584203 -420584209 -420584211 -421149636#1 -421149636#0 204843025#0 204843025#1 542169859 420875693#1 420875693#2 221759326 496980629#0 496980629#1 420319835#0 420319835#1 421116789#0 421116789#1 421116789#2 37624370#1 421116788 -221688255#1 -221688255#0 -497256112 -497256111 221688252 420315112 -221753947 221753950 221753933 221753948#0 221753948#1 221753948#2 37183340#0 5679854#7 5679854#8 5679854#9 5679854#10"/>
    </vehicle>
    <vehicle id="truck46" type="truck_truck" depart="43.93" departLane="best">
        <route edges="-206610786#18 -206610786#17 -206610786#16 -206610786#15 221696386#13 221696386#14 221696386#15 -68325083#2 -68325083#1 -68325083#0 -227074775#2 -227074775#1 -227074775#0 -5705730 5674171"/>
    </vehicle>
    <vehicle id="truck47" type="truck_truck" depart="44.89" departLane="best">