<?xml version="1.0" encoding="UTF-8"?>
<!-- generated on 2019-05-01 21:30:13.570378 by $Id$ via randomTrips.py
  options: 
-->
<routes xmlns:xsi="http://www.w3.org/2001/XMLSchema-instance" xsi:noNamespaceSchemaLocation="http://sumo.dlr.de/xsd/routes_file.xsd">
    <vType id="truck_truck" vClass="truck">
    </vType>
    <trip id="truck0" depart="0.00" departLane="best" from="46835349#6" to="-221603657" type="truck_truck"/>
    <trip id="truck1" depart="0.96" departLane="best" from="219964428#4" to="112168176" type="truck_truck"/>
    <trip id="truck2" depart="1.91" departLane="best" from="5675523" to="495491355#1" type="truck_truck"/>
    <trip id="truck3" depart="2.87" departLane="best" from="5680429#0" to="-420584214#1" type="truck_truck"/>
    <trip id="truck4" depart="3.82" departLane="best" from="276043635" to="-221753935" type="truck_truck"/>
    <trip id="truck5" depart="4.78" departLane="best" from="-587067515" to="420886403" type="truck_truck"/>
    <trip id="truck6" depart="5.73" departLane="best" from="-221586643#1" to="-59707790" type="truck_truck"/>
    <trip id="truck7" depart="6.69" departLane="best" from="46863648#2" to="452284609" type="truck_truck"/>
    <trip id="truck8" depart="7.64" departLane="best" from="-587067527#1" to="46786517" type="truck_truck"/>
    <trip id="truck9" depart="8.60" departLane="best" from="5678101#14" to="-154513050#0" type="truck_truck"/>
    <trip id="truck10" depart="9.55" departLane="best" from="5677949#8" to="515885152#4" type="truck_truck"/>
    <trip id="truck11" depart="10.51" departLane="best" from="221777103" to="-5676937" type="truck_truck"/>
    <trip id="truck12" depart="11.46" departLane="best" from="578129950#1" to="222258268" type="truck_truck"/>
    <trip id="truck13" depart="12.42" departLane="best" from="-420346447#2" to="-432552974" type="truck_truck"/>
    <trip id="truck14" depart="13.37" departLane="best" from="5678919#0" to="46818463" type="truck_truck"/>
    <trip id="truck15" depart="14.33" departLane="best" from="5677950#5" to="5675664#2" type="truck_truck"/>
    <trip id="truck16" depart="15.28" departLane="best" from="432552979#1" to="630677037" type="truck_truck"/>
    <trip id="truck17" depart="16.24" departLane="best" from="5678387#2" to="46835336#21" type="truck_truck"/>
    <trip id="truck18" depart="17.19" departLane="best" from="5679757" to="464137214#3" type="truck_truck"/>
    <trip id="truck19" depart="18.15" departLane="best" from="500452656#2" to="-227064555#4" type="truck_truck"/>
    <trip id="truck20" depart="19.10" departLane="best" from="-636728275" to="221607367" type="truck_truck"/>
    <trip id="truck21" depart="20.06" departLane="best" from="-37195087#2" to="145079213#2" type="truck_truck"/>
    <trip id="truck22" depart="21.01" departLane="best" from="-420875713#0" to="221586639#2" type="truck_truck"/>
    <trip id="truck23" depart="21.97" departLane="best" from="46835336#6" to="227074786#15" type="truck_truck"/>
    <trip id="truck24" depart="22.92" departLane="best" from="227064531#2" to="-68523760#2" type="truck_truck"/>
    <trip id="truck25" depart="23.88" departLane="best" from="183916203#0" to="5681940#2" type="truck_truck"/>
    <trip id="truck26" depart="24.83" departLane="best" from="46846379#0" to="46818904#11" type="truck_truck"/>
    <trip id="truck27" depart="25.79" departLane="best" from="-5675937" to="5675610" type="truck_truck"/>
    <trip id="truck28" depart="26.74" departLane="best" from="-497257603#8" to="23334061#6" type="truck_truck"/>
    <trip id="truck29" depart="27.70" departLane="best" from="680830803" to="46863691#5" type="truck_truck"/>
    <trip id="truck30" depart="28.65" departLane="best" from="451910413#2" to="497256111" type="truck_truck"/>
    <trip id="truck31" depart="29.61" departLane="best" from="5678784#15" to="5677397#9" type="truck_truck"/>
    <trip id="truck32" depart="30.56" departLane="best" from="-654744274#2" to="-221753949#1" type="truck_truck"/>
    <trip id="truck33" depart="31.52" departLane="best" from="221696379" to="221585914#23" type="truck_truck"/>
    <trip id="truck34" depart="32.47" departLane="best" from="-5681578" to="5682184#13" type="truck_truck"/>
    <trip id="truck35" depart="33.43" departLane="best" from="5680024#1" to="221759331#1" type="truck_truck"/>
    <trip id="truck36" depart="34.38" departLane="best" from="5680972#0" to="39974314" type="truck_truck"/>
    <trip id="truck37" depart="35.34" departLane="best" from="183103118#0" to="204842637#3" type="truck_truck"/>
    <trip id="truck38" depart="36.29" departLane="best" from="451915591#1" to="221585908#5" type="truck_truck"/>
    <trip id="truck39" depart="37.25" departLane="best" from="23334091#2" to="110155732" type="truck_truck"/>
    <trip id="truck40" depart="38.20" departLane="best" from="78288187#0" to="421118179" type="truck_truck"/>
    <trip id="truck42" depart="40.11" departLane="best" from="-432552966#2" to="46835362" type="truck_truck"/>
    <trip id="truck43" depart="41.07" departLane="best" from="-232270200#0" to="23334091#1" type="truck_truck"/>
    <trip id="truck44" depart="42.02" departLane="best" from="68523776-AddedOnRampEdge" to="447792828#3" type="truck_truck"/>
    <trip id="truck45" depart="42.98" departLane="best" from="625647896#1" to="5679854#10" type="truck_truck"/>
    <trip id="truck46" depart="43.93" departLane="best" from="-206610786#18" to="5674171" type="truck_truck"/>
    <trip id="truck47" depart="44.89" departLane="best" from="489437292#10" to="451413253#3" type="truck_truck"/>
    <trip id="truck49" depart="46.80" departLane="best" from="-432552979#0" to="347014805#0" type="truck_truck"/>
    <trip id="truck50" depart="47.75" departLane="best" from="347014805#6" to="573061411" type="truck_truck"/>
    <trip id="truck51" depart="48.71" departLane="best" from="5679924" to="221585909#1" type="truck_truck"/>
    <trip id="truck52" depart="49.66" departLane="best" from="420346486#1" to="-5679924" type="truck_truck"/>
    <trip id="truck53" depart="50.62" departLane="best" from="5680880#3" to="5680024#4" type="truck_truck"/>
    <trip id="truck54" depart="51.57" departLane="best" from="221586638#0" to="46863673#2" type="truck_truck"/>
    <trip id="truck55" depart="52.53" departLane="best" from="46788753#0" to="-5675532" type="truck_truck"/>
    <trip id="truck56" depart="53.48" departLane="best" from="5676800" to="451910413#9" type="truck_truck"/>
    <trip id="truck57" depart="54.44" departLane="best" from="5677047" to="450610492#13" type="truck_truck"/>
    <trip id="truck58" depart="55.39" departLane="best" from="-108166470" to="222246285#2" type="truck_truck"/>
    <trip id="truck59" depart="56.35" departLane="best" from="-221585908#5" to="5681568#2" type="truck_truck"/>
    <trip id="truck60" depart="57.30" departLane="best" from="5680024#8" to="5678756#7" type="truck_truck"/>
    <trip id="truck61" depart="58.26" departLane="best" from="221602117#1" to="-232270200#2" type="truck_truck"/>
    <trip id="truck62" depart="59.21" departLane="best" from="5680024#4" to="5705730" type="truck_truck"/>
    <trip id="truck63" depart="60.17" departLane="best" from="-239629078" to="5677037#11" type="truck_truck"/>
    <trip id="truck64" depart="61.12" departLane="best" from="5676939#0" to="-46818905#6" type="truck_truck"/>
    <trip id="truck65" depart="62.08" departLane="best" from="39956193#2" to="456407470" type="truck_truck"/>
    <trip id="truck66" depart="63.03" departLane="best" from="183103118#1" to="5680052#0" type="truck_truck"/>
    <trip id="truck67" depart="63.99" departLane="best" from="276043641#0" to="-686370900" type="truck_truck"/>
    <trip id="truck68" depart="64.94" departLane="best" from="432554456#1" to="5675664#3" type="truck_truck"/>
    <trip id="truck69" depart="65.90" departLane="best" from="-5680476#3" to="221759324#1" type="truck_truck"/>
    <trip id="truck70" depart="66.85" departLane="best" from="68523771" to="46865765#11" type="truck_truck"/>
    <trip id="truck71" depart="67.81" departLane="best" from="308340267#4" to="432552970#1" type="truck_truck"/>
    <trip id="truck73" depart="69.72" departLane="best" from="221777100#1" to="46786508" type="truck_truck"/>
    <trip id="truck74" depart="70.67" departLane="best" from="-654744279" to="110277551#2" type="truck_truck"/>
    <trip id="truck75" depart="71.63" departLane="best" from="-275303244" to="46835370#3" type="truck_truck"/>
    <trip id="truck76" depart="72.58" departLane="best" from="-654744274#1" to="5680853#1" type="truck_truck"/>
    <trip id="truck77" depart="73.54" departLane="best" from="5679708#17" to="-37394899#1" type="truck_truck"/>
    <trip id="truck78" depart="74.49" departLane="best" from="-78288188#0" to="488941121#10" type="truck_truck"/>
    <trip id="truck79" depart="75.45" departLane="best" from="-5707635#0" to="-46865764#4" type="truck_truck"/>
    <trip id="truck80" depart="76.40" departLane="best" from="5681678#3" to="46137551#1" type="truck_truck"/>
    <trip id="truck81" depart="77.36" departLane="best" from="39612790#0" to="5677584" type="truck_truck"/>
    <trip id="truck82" depart="78.31" departLane="best" from="-420572567" to="34452220#2" type="truck_truck"/>
    <trip id="truck83" depart="79.27" departLane="best" from="276050433" to="40785410#1" type="truck_truck"/>
    <trip id="truck84" depart="80.22" departLane="best" from="5673953" to="493933673#0" type="truck_truck"/>
    <trip id="truck85" depart="81.18" departLane="best" from="658936642#2" to="-432552981#1" type="truck_truck"/>
    <trip id="truck86" depart="82.13" departLane="best" from="249968535#0" to="222258278" type="truck_truck"/>
    <trip id="truck87" depart="83.09" departLane="best" from="5679757" to="206610786#19" type="truck_truck"/>
    <trip id="truck88" depart="84.04" departLane="best" from="-5678753" to="37434658#4" type="truck_truck"/>
    <trip id="truck89" depart="85.00" departLane="best" from="276043635" to="221586639#2" type="truck_truck"/>
    <trip id="truck90" depart="85.95" departLane="best" from="122625696" to="5681328" type="truck_truck"/>
    <trip id="truck91" depart="86.91" departLane="best" from="334262992#2" to="5679854#13" type="truck_truck"/>
    <trip id="truck92" depart="87.86" departLane="best" from="450610492#24" to="-227074781#13" type="truck_truck"/>
    <trip id="truck93" depart="88.82" departLane="best" from="97010395#0" to="5678784#25" type="truck_truck"/>
    <trip id="truck95" depart="90.73" departLane="best" from="5678929#0" to="-5678262#1" type="truck_truck"/>
    <trip id="truck96" depart="91.68" departLane="best" from="239626765" to="-23334074#1" type="truck_truck"/>
    <trip id="truck97" depart="92.64" departLane="best" from="227074769#2" to="658936644#1" type="truck_truck"/>
    <trip id="truck98" depart="93.59" departLane="best" from="183103118#1" to="5677459" type="truck_truck"/>
    <trip id="truck99" depart="94.55" departLane="best" from="348456696" to="315569174" type="truck_truck"/>
    <trip id="truck100" depart="95.50" departLane="best" from="578129950#1" to="68523765#5" type="truck_truck"/>
    <trip id="truck101" depart="96.46" departLane="best" from="451910412#2" to="552015559#0" type="truck_truck"/>
    <trip id="truck102" depart="97.41" departLane="best" from="-483140981#1" to="221696386#3" type="truck_truck"/>
    <trip id="truck104" depart="99.32" departLane="best" from="440633404#0" to="5676656#5" type="truck_truck"/>
    <trip id="truck105" depart="100.28" departLane="best" from="-227074781#7" to="46774534#3" type="truck_truck"/>
    <trip id="truck106" depart="101.23" departLane="best" from="420346499" to="5679708#2" type="truck_truck"/>
    <trip id="truck107" depart="102.19" departLane="best" from="-494221659#8" to="587067527#1" type="truck_truck"/>
    <trip id="truck108" depart="103.14" departLane="best" from="-37394898#0" to="-5680913#0" type="truck_truck"/>
    <trip id="truck109" depart="104.10" departLane="best" from="464255710" to="494221659#8" type="truck_truck"/>
    <trip id="truck110" depart="105.05" departLane="best" from="-68325083#1" to="-46786522" type="truck_truck"/>
    <trip id="truck111" depart="106.01" departLane="best" from="5680361#0" to="204842637#0" type="truck_truck"/>
    <trip id="truck112" depart="106.96" departLane="best" from="276024637#27" to="46774534#1" type="truck_truck"/>
    <trip id="truck113" depart="107.92" departLane="best" from="421084098" to="5681891#0" type="truck_truck"/>
    <trip id="truck114" depart="108.87" departLane="best" from="-5680631#7" to="542169858" type="truck_truck"/>
    <trip id="truck115" depart="109.83" departLane="best" from="-78288188#4" to="275303244" type="truck_truck"/>
    <trip id="truck116" depart="110.78" departLane="best" from="479748558#0" to="221725601#0" type="truck_truck"/>
    <trip id="truck117" depart="111.74" departLane="best" from="221696381#1" to="5676766" type="truck_truck"/>
    <trip id="truck118" depart="112.69" departLane="best" from="-295384457#0" to="39956206" type="truck_truck"/>
    <trip id="truck119" depart="113.65" departLane="best" from="78288188#3" to="68523772" type="truck_truck"/>
    <trip id="truck120" depart="114.60" departLane="best" from="-308340267#1" to="107391104#1" type="truck_truck"/>
    <trip id="truck121" depart="115.56" departLane="best" from="5680116#0" to="5680167#12" type="truck_truck"/>
    <trip id="truck122" depart="116.51" departLane="best" from="227064529#1" to="-5677459" type="truck_truck"/>
    <trip id="truck123" depart="117.47" departLane="best" from="5678442#25" to="524340776#4" type="truck_truck"/>
    <trip id="truck125" depart="119.38" departLane="best" from="46863844#10" to="-154513056" type="truck_truck"/>
    <trip id="truck126" depart="120.33" departLane="best" from="5678215#9" to="221725598#8" type="truck_truck"/>
    <trip id="truck127" depart="121.29" departLane="best" from="46865768#2" to="5682056#1" type="truck_truck"/>
    <trip id="truck128" depart="122.24" departLane="best" from="-46772625#6" to="-464255708" type="truck_truck"/>
    <trip id="truck130" depart="124.15" departLane="best" from="206610786#6" to="46818468#2" type="truck_truck"/>
    <trip id="truck131" depart="125.11" departLane="best" from="530568998#1" to="-654744274#4" type="truck_truck"/>
    <trip id="truck132" depart="126.06" departLane="best" from="46835336#22" to="221585911#1" type="truck_truck"/>
    <trip id="truck133" depart="127.02" departLane="best" from="420315111#0" to="5680853#0" type="truck_truck"/>
    <trip id="truck134" depart="127.97" departLane="best" from="5678784#7" to="-421149636#0" type="truck_truck"/>
    <trip id="truck135" depart="128.93" departLane="best" from="276050433" to="221586638#5" type="truck_truck"/>
    <trip id="truck136" depart="129.88" departLane="best" from="-148285572#1" to="5677205#0" type="truck_truck"/>
    <trip id="truck137" depart="130.84" departLane="best" from="46835341#0" to="221585908#2" type="truck_truck"/>
    <trip id="truck138" depart="131.79" departLane="best" from="5675784#2" to="460569807#3" type="truck_truck"/>
    <trip id="truck139" depart="132.75" departLane="best" from="276145112" to="-183916203#2" type="truck_truck"/>
    <trip id="truck140" depart="133.70" departLane="best" from="-334341973#0" to="5680396" type="truck_truck"/>
    <trip id="truck141" depart="134.66" departLane="best" from="5680703#6" to="452286949#1" type="truck_truck"/>
    <trip id="truck142" depart="135.61" departLane="best" from="5678442#3" to="46772625#5" type="truck_truck"/>
    <trip id="truck143" depart="136.57" departLane="best" from="-46863691#3" to="-46818904#9" type="truck_truck"/>
    <trip id="truck144" depart="137.52" departLane="best" from="221603657" to="5680742#14" type="truck_truck"/>
    <trip id="truck145" depart="138.48" departLane="best" from="5677818#0" to="5679854#10" type="truck_truck"/>
    <trip id="truck146" depart="139.43" departLane="best" from="5680589#3" to="-68523765#3" type="truck_truck"/>
    <trip id="truck148" depart="141.34" departLane="best" from="5677150#0" to="5680419#3" type="truck_truck"/>
    <trip id="truck149" depart="142.30" departLane="best" from="25564006#1" to="46835336#5" type="truck_truck"/>
    <trip id="truck150" depart="143.25" departLane="best" from="-483140981#0" to="5681577#2" type="truck_truck"/>
    <trip id="truck151" depart="144.21" departLane="best" from="5679765" to="641437649" type="truck_truck"/>
    <trip id="truck152" depart="145.16" departLane="best" from="5678101#7" to="5680167#9" type="truck_truck"/>
    <trip id="truck153" depart="146.12" departLane="best" from="-221586637" to="5676159#0" type="truck_truck"/>
    <trip id="truck154" depart="147.07" departLane="best" from="221759320#32" to="5681578" type="truck_truck"/>
    <trip id="truck155" depart="148.03" departLane="best" from="5677949#14" to="5679892#0" type="truck_truck"/>
    <trip id="truck156" depart="148.98" departLane="best" from="5678101#6" to="221585914#19" type="truck_truck"/>
    <trip id="truck157" depart="149.94" departLane="best" from="5677430#9" to="-460569807#0" type="truck_truck"/>
    <trip id="truck158" depart="150.89" departLane="best" from="-587355778#1" to="5678277#6" type="truck_truck"/>
    <trip id="truck159" depart="151.85" departLane="best" from="5677695#2" to="123001149#2" type="truck_truck"/>
    <trip id="truck160" depart="152.80" departLane="best" from="-221585918#4" to="-5707635#2" type="truck_truck"/>
    <trip id="truck161" depart="153.76" departLane="best" from="221753950" to="5679892#2" type="truck_truck"/>
    <trip id="truck162" depart="154.71" departLane="best" from="608794060#1" to="221586643#1" type="truck_truck"/>
    <trip id="truck163" depart="155.67" departLane="best" from="46835362" to="275389181" type="truck_truck"/>
    <trip id="truck164" depart="156.62" departLane="best" from="654744285#2" to="451413253#1" type="truck_truck"/>
    <trip id="truck165" depart="157.58" departLane="best" from="5681939#0" to="-464255708" type="truck_truck"/>
    <trip id="truck167" depart="159.49" departLane="best" from="587355764#0" to="221585914#11" type="truck_truck"/>
    <trip id="truck168" depart="160.44" departLane="best" from="-43242499#7" to="347014804#3" type="truck_truck"/>
    <trip id="truck169" depart="161.40" departLane="best" from="5673865" to="221759328#3" type="truck_truck"/>
    <trip id="truck170" depart="162.35" departLane="best" from="46788737" to="421123037" type="truck_truck"/>
    <trip id="truck171" depart="163.31" departLane="best" from="227074786#2" to="463957168" type="truck_truck"/>
    <trip id="truck172" depart="164.26" departLane="best" from="123001156#2" to="530568998#4" type="truck_truck"/>
    <trip id="truck173" depart="165.22" departLane="best" from="-111781747#3" to="5681383#8" type="truck_truck"/>
    <trip id="truck174" depart="166.17" departLane="best" from="432554453#3" to="559907542#0" type="truck_truck"/>
    <trip id="truck175" depart="167.13" departLane="best" from="5675784#6" to="489437291" type="truck_truck"/>
    <trip id="truck176" depart="168.08" departLane="best" from="227002831#2" to="-37394898#1" type="truck_truck"/>
    <trip id="truck177" depart="169.04" departLane="best" from="471943031#0" to="222246979" type="truck_truck"/>
    <trip id="truck178" depart="169.99" departLane="best" from="221696377#0" to="5679471" type="truck_truck"/>
    <trip id="truck179" depart="170.95" departLane="best" from="534164487" to="221725601#2" type="truck_truck"/>
    <trip id="truck180" depart="171.90" departLane="best" from="221605483#0" to="276050436" type="truck_truck"/>
    <trip id="truck181" depart="172.86" departLane="best" from="239629078" to="221696386#11" type="truck_truck"/>
    <trip id="truck182" depart="173.81" departLane="best" from="-46121853#0" to="308338861#0" type="truck_truck"/>
    <trip id="truck183" depart="174.77" departLane="best" from="5681940#3" to="495491356#3" type="truck_truck"/>
    <trip id="truck184" depart="175.72" departLane="best" from="5680695#0" to="46820145" type="truck_truck"/>
    <trip id="truck186" depart="177.63" departLane="best" from="-108166470" to="221604537#1" type="truck_truck"/>
    <trip id="truck187" depart="178.59" departLane="best" from="278135787" to="464551540#0" type="truck_truck"/>
    <trip id="truck188" depart="179.54" departLane="best" from="46863844#16" to="40711969" type="truck_truck"/>
    <trip id="truck189" depart="180.50" departLane="best" from="324751025" to="107391104#13" type="truck_truck"/>
    <trip id="truck190" depart="181.45" departLane="best" from="39612790#0" to="5680756#1" type="truck_truck"/>
    <trip id="truck191" depart="182.41" departLane="best" from="5677818#0" to="-5678278" type="truck_truck"/>
    <trip id="truck192" depart="183.36" departLane="best" from="-39613244#1" to="43242499#6" type="truck_truck"/>
    <trip id="truck193" depart="184.32" departLane="best" from="46835336#15" to="222254952#0" type="truck_truck"/>
    <trip id="truck194" depart="185.27" departLane="best" from="5678246#0" to="5676708#6" type="truck_truck"/>
    <trip id="truck196" depart="187.18" departLane="best" from="-5680035#0" to="-221586643#0" type="truck_truck"/>
    <trip id="truck197" depart="188.14" departLane="best" from="110161764#1" to="420317200" type="truck_truck"/>
    <trip id="truck198" depart="189.09" departLane="best" from="5679109#1" to="-386201385" type="truck_truck"/>
    <trip id="truck199" depart="190.05" departLane="best" from="275389083" to="46835368#1" type="truck_truck"/>
    <trip id="truck200" depart="191.00" departLane="best" from="-5679171#6" to="511768217" type="truck_truck"/>
    <trip id="truck201" depart="191.96" departLane="best" from="420319835#0" to="183916221#1" type="truck_truck"/>
    <trip id="truck202" depart="192.91" departLane="best" from="46863844#22" to="-151471702#0" type="truck_truck"/>
    <trip id="truck203" depart="193.87" departLane="best" from="5676353#1" to="5677160#1" type="truck_truck"/>
    <trip id="truck204" depart="194.82" departLane="best" from="-43242499#0" to="324751028" type="truck_truck"/>
    <trip id="truck205" depart="195.78" departLane="best" from="-5677211" to="587067515" type="truck_truck"/>
    <trip id="truck206" depart="196.73" departLane="best" from="420880629" to="-227074781#11" type="truck_truck"/>
    <trip id="truck208" depart="198.64" departLane="best" from="349365815#2" to="5678101#14" type="truck_truck"/>
    <trip id="truck209" depart="199.60" departLane="best" from="475559459#3" to="672080274" type="truck_truck"/>
    <trip id="truck210" depart="200.55" departLane="best" from="464551540#1" to="5710128#0" type="truck_truck"/>
    <trip id="truck211" depart="201.51" departLane="best" from="5680419#1" to="46818905#4" type="truck_truck"/>
    <trip id="truck212" depart="202.46" departLane="best" from="530569001#4" to="420884510" type="truck_truck"/>
    <trip id="truck213" depart="203.42" departLane="best" from="5678442#0" to="455690466#0" type="truck_truck"/>
    <trip id="truck214" depart="204.37" departLane="best" from="5680479" to="5676489#11" type="truck_truck"/>
    <trip id="truck215" depart="205.33" departLane="best" from="39946177-AddedOffRampEdge" to="221583273#4" type="truck_truck"/>
    <trip id="truck216" depart="206.28" departLane="best" from="111781747#4" to="46863648#0" type="truck_truck"/>
    <trip id="truck217" depart="207.24" departLane="best" from="5676939#0" to="432554453#4" type="truck_truck"/>
    <trip id="truck218" depart="208.19" departLane="best" from="46818904#9" to="221585918#7" type="truck_truck"/>
    <trip id="truck219" depart="209.15" departLane="best" from="-351479503#1" to="221602117#1" type="truck_truck"/>
    <trip id="truck220" depart="210.10" departLane="best" from="206610786#19" to="221777109#14" type="truck_truck"/>
    <trip id="truck221" depart="211.06" departLane="best" from="43315004#0" to="-494221659#6" type="truck_truck"/>
    <trip id="truck222" depart="212.01" departLane="best" from="-654744285#5" to="500269690#1" type="truck_truck"/>
    <trip id="truck223" depart="212.97" departLane="best" from="515885147#2" to="-308340267#0" type="truck_truck"/>
    <trip id="truck224" depart="213.92" departLane="best" from="25723095#0" to="451915591#2" type="truck_truck"/>
    <trip id="truck225" depart="214.88" departLane="best" from="276024637#0" to="-672059010" type="truck_truck"/>
    <trip id="truck226" depart="215.83" departLane="best" from="276024637#6" to="5680852" type="truck_truck"/>
    <trip id="truck227" depart="216.79" departLane="best" from="46121853#2" to="506650490" type="truck_truck"/>
    <trip id="truck228" depart="217.74" departLane="best" from="5679548#0" to="5677037#38" type="truck_truck"/>
    <trip id="truck229" depart="218.70" departLane="best" from="227074776#3" to="-154513049#0" type="truck_truck"/>
    <trip id="truck230" depart="219.65" departLane="best" from="5679240" to="571995830" type="truck_truck"/>
    <trip id="truck231" depart="220.61" departLane="best" from="276024637#26" to="5676563" type="truck_truck"/>
    <trip id="truck232" depart="221.56" departLane="best" from="447792828#1" to="46818460#1" type="truck_truck"/>
    <trip id="truck233" depart="222.52" departLane="best" from="-587067527#1" to="110161764#0" type="truck_truck"/>
    <trip id="truck234" depart="223.47" departLane="best" from="300338876#0" to="-221731898#0" type="truck_truck"/>
    <trip id="truck235" depart="224.43" departLane="best" from="221759328#2" to="495491359#1" type="truck_truck"/>
    <trip id="truck236" depart="225.38" departLane="best" from="250372840#6" to="-5678246#5" type="truck_truck"/>
    <trip id="truck237" depart="226.34" departLane="best" from="37602216#0" to="-46818905#0" type="truck_truck"/>
    <trip id="truck238" depart="227.29" departLane="best" from="46818471#0" to="-221696380#0" type="truck_truck"/>
    <trip id="truck239" depart="228.25" departLane="best" from="23168577#0" to="46121848#1" type="truck_truck"/>
    <trip id="truck240" depart="229.20" departLane="best" from="-221602121" to="46863844#10" type="truck_truck"/>
    <trip id="truck241" depart="230.16" departLane="best" from="-46786509" to="40416338#1" type="truck_truck"/>
    <trip id="truck242" depart="231.11" departLane="best" from="-227064556#2" to="23334061#4" type="truck_truck"/>
    <trip id="truck243" depart="232.07" departLane="best" from="-5681884" to="222246540#2" type="truck_truck"/>
    <trip id="truck244" depart="233.02" departLane="best" from="5676734#0" to="23334061#4" type="truck_truck"/>
    <trip id="truck245" depart="233.98" departLane="best" from="5676417#1" to="5678756#8" type="truck_truck"/>
    <trip id="truck246" depart="234.93" departLane="best" from="123001149#4" to="-420567578" type="truck_truck"/>
    <trip id="truck247" depart="235.89" departLane="best" from="-221585908#5" to="451910413#9" type="truck_truck"/>
    <trip id="truck248" depart="236.84" departLane="best" from="97010425#2" to="227064534#5" type="truck_truck"/>
    <trip id="truck249" depart="237.80" departLane="best" from="46863648#3" to="5677438#20" type="truck_truck"/>
    <trip id="truck250" depart="238.75" departLane="best" from="46863691#4" to="5676884#1" type="truck_truck"/>
    <trip id="truck251" depart="239.71" departLane="best" from="5705382#0" to="-601732567#1" type="truck_truck"/>
    <trip id="truck252" depart="240.66" departLane="best" from="-221585916#1" to="-5675443" type="truck_truck"/>
    <trip id="truck253" depart="241.62" departLane="best" from="-46121848#5" to="488941121#3" type="truck_truck"/>
    <trip id="truck254" depart="242.57" departLane="best" from="452286946#1" to="108166470" type="truck_truck"/>
    <trip id="truck255" depart="243.53" departLane="best" from="497258437#7" to="5677037#8" type="truck_truck"/>
    <trip id="truck256" depart="244.48" departLane="best" from="-525679230#3" to="46818470#5" type="truck_truck"/>
    <trip id="truck257" depart="245.44" departLane="best" from="5676234#7" to="-464137214#6" type="truck_truck"/>
    <trip id="truck258" depart="246.39" departLane="best" from="5678246#3" to="587355778#0" type="truck_truck"/>
    <trip id="truck259" depart="247.35" departLane="best" from="-43242499#5" to="-221688252" type="truck_truck"/>
    <trip id="truck260" depart="248.30" departLane="best" from="221688255#0" to="495491356#3" type="truck_truck"/>
    <trip id="truck261" depart="249.26" departLane="best" from="587067518#1" to="275303277" type="truck_truck"/>
    <trip id="truck262" depart="250.21" departLane="best" from="525679230#3" to="-409285510#0" type="truck_truck"/>
    <trip id="truck263" depart="251.17" departLane="best" from="497193472#0" to="46835357#2-AddedOnRampEdge" type="truck_truck"/>
    <trip id="truck264" depart="252.12" departLane="best" from="-420880043" to="5677211" type="truck_truck"/>
    <trip id="truck265" depart="253.08" departLane="best" from="5679110" to="46817513#1" type="truck_truck"/>
    <trip id="truck266" depart="254.03" departLane="best" from="-451915592" to="658936642#0" type="truck_truck"/>
    <trip id="truck267" depart="254.99" departLane="best" from="5677338" to="227064523#3" type="truck_truck"/>
    <trip id="truck268" depart="255.94" departLane="best" from="276145117#1" to="227074808" type="truck_truck"/>
    <trip id="truck269" depart="256.90" departLane="best" from="420571183" to="226998581#1" type="truck_truck"/>
    <trip id="truck270" depart="257.85" departLane="best" from="5679109#0" to="5678442#12" type="truck_truck"/>
    <trip id="truck271" depart="258.81" departLane="best" from="-421149636#0" to="587067527#1" type="truck_truck"/>
    <trip id="truck272" depart="259.76" departLane="best" from="46835336#6" to="5678641" type="truck_truck"/>
    <trip id="truck273" depart="260.72" departLane="best" from="515885152#4" to="347014805#4" type="truck_truck"/>
    <trip id="truck274" depart="261.67" departLane="best" from="5675082#0" to="587355786" type="truck_truck"/>