<routes xmlns:xsi="http://www.w3.org/2001/XMLSchema-instance" xsi:noNamespaceSchemaLocation="http://sumo.dlr.de/xsd/routes_file.xsd">
    <vType id="moto_motorcycle" vClass="motorcycle" />
    <vehicle depart="0.00" departLane="best" id="moto0" type="moto_motorcycle">
        <route edges="265726446 359790104#1 359790104#2 426696449#1 426696441#1 426696415#1 359790121#10 359790121#11 359790121#12 426696410#0 426696410#1 426696411 230628527#0 230628527#1 577926288 38630642#0 72614060" />
    </vehicle>
    <vehicle depart="0.42" departLane="best" id="moto1" type="moto_motorcycle">
        <route edges="172297071#1 134462236#0 19796852#3 265227053#1 265227053#3 265227053#4 265227053#5 265227053#6 265227053#7 265227053#8 265227053#9 265227053#10 265227053#11 265227053#12 265227053#13 265227053#14 265227053#15 265227053#16 16768116 16768116-AddedOffRampEdge 628293205 154421024 236732316 244739220 26661275 237003874 596595379 318221356#1 318221356#2 318221356#3 318221356#4 318221356#5 318221356#6" />
    </vehicle>
    <vehicle depart="0.85" departLane="best" id="moto2" type="moto_motorcycle">
        <route edges="-431546514 37916449#1 429353540#0 272898748 272898745 128508563#0 128508563#1 128508563#2 128508563#3 128508563#4 128508563#5 128508563#6 128508563#7 128508563#8 128508563#9 230398376 17446828 237048431 235497116 168667916 424630809#0 424630809#1 424630809#2 424630809#3 424630809#4 424630809#5 424630809#6 -424630814#2 -424630814#1 -424630814#0 141294961#0 141294961#2 141294961#3 141294961#4" />
    </vehicle>
    <vehicle depart="1.27" departLane="best" id="moto3" type="moto_motorcycle">
        <route edges="-424630814#2 424630860#4 424630860#5 424630860#6 424630860#7 424630860#8 424630860#9 424630823 279753892#0 279753892#1 424630821 424630807#1 424630819#6 424630809#0 424630809#1" />
    </vehicle>
    <vehicle depart="2.12" departLane="best" id="moto5" type="moto_motorcycle">
        <route edges="-27030017#1 -27030017#0 310454395#1 37916643#0 37916643#1 310454393 371375600#0 371375600#1 128515111 620987193#0 620987193#1 229739161#0 229739161#0-AddedOffRampEdge 229739161#1" />
    </vehicle>
    <vehicle depart="2.55" departLane="best" id="moto6" type="moto_motorcycle">
        <route edges="38738604 244936614#0 244936614#1 244936614#2 244936614#3 244936614#4 123103598#1 -211455035#2 -211455035#1 -211455035#0 211455040 244936647#0 244936647#1 -27030143#4 -27030143#3 -27030143#2 -27030143#1 -27030143#0 -27029997#9 -27029997#8 278992347 -27030002#1 -27030002#0 -27030107 -278992349 278992350 278992351#0 -39081863#0 -251712235#0 278992349" />
    </vehicle>
    <vehicle depart="2.97" departLane="best" id="moto7" type="moto_motorcycle">
        <route edges="-37909859#0 38630650#1 38630650#2 38630650#3 38630650#4 471622247 38630652#0 38630652#1 504331803#0 72767350 72767317#1 72767317#2 428721903 424210747#0 -211556987#9 -211556987#8 -211556987#7 -211556987#6 -211556987#5 230593245 230593246 333172735#7 333172735#8 329613766#0 329613766#1 237587407#0 237587407#1 237587407#3 237587407#4 237587407#5" />
    </vehicle>
    <vehicle depart="3.40" departLane="best" id="moto8" type="moto_motorcycle">
        <route edges="-172308673#3 -172308673#2 -172308673#1 -172308673#0 255792503#0 255792503#1 195270960#0 195270960#2 39051476#1 556750747#0 556750747#1 556750747#3 556750747#4 556750747#5 556750747#6" />
    </vehicle>
    <vehicle depart="4.67" departLane="best" id="moto11" type="moto_motorcycle">
        <route edges="8579908 277794712#1 133124801#0 133124801#1 454680853 211556995#0 211556995#1 211556988 454576378 196171809 524256404-AddedOnRampEdge 524256404 435973651#1 435973651#1-AddedOffRampEdge" />
    </vehicle>
    <vehicle depart="5.09" departLane="best" id="moto12" type="moto_motorcycle">
        <route edges="471338742#0 471338742#1 471338742#2 471338742#3 472104812#0 472104811#1 472104811#2 405498517#0 39056496#0 39056496#1 -39077901#4 -38585123#1 -38585123#0 448210021#0 448210021#1 -448210022 -68280085#4 -68280085#3" />
    </vehicle>
    <vehicle depart="5.94" departLane="best" id="moto14" type="moto_motorcycle">
        <route edges="211455039 211455037#0 -27030074#0 73532302#1 -447117761 -27029998 -278992352#3 -278992352#2 -278992352#1 -27029997#6 -27030027#9 -27030027#6 -27030027#5 -27030027#4 -27030027#3 132236345#4 -131655864" />
    </vehicle>
    <vehicle depart="6.37" departLane="best" id="moto15" type="moto_motorcycle">
        <route edges="445750758#0 73532302#0 73532302#1 73532302#2 73532302#3" />
    </vehicle>
    <vehicle depart="6.79" departLane="best" id="moto16" type="moto_motorcycle">
        <route edges="-430128410 37916629#1 27238962#2 27238962#3 183462562#0 37916642#2 -142908739 -37916646 -53801206#6 -53801206#5 -53801206#4 -53801206#2 -53801206#1 430127946" />
    </vehicle>
    <vehicle depart="7.22" departLane="best" id="moto17" type="moto_motorcycle">
        <route edges="370514754 -230784541 230784087#3" />
    </vehicle>
    <vehicle depart="7.64" departLane="best" id="moto18" type="moto_motorcycle">
        <route edges="323053803 221635256#2 626721430#1 626721430#2 626721430#3 556750747#5 556750747#6 556750747#7 134462812 280118522#1 280118522#2 280118522#3 420384665 632976630#0 428102023#0 428102023#1 27639629#0 27639629#1" />
    </vehicle>
    <vehicle depart="8.07" departLane="best" id="moto19" type="moto_motorcycle">
        <route edges="39078043#1 -68280085#1 128137740#4 184769986 184769988 171848080 448210016 171847941#0 171847941#0-AddedOffRampEdge 171847941#1 171847941#2 171847964#0 171847964#1 597462036 165472953 15808057#0" />
    </vehicle>
    <vehicle depart="8.49" departLane="best" id="moto20" type="moto_motorcycle">
        <route edges="124962725#1 661786911 661786918 124962723#0 124962832 373576672 269678077#5 269678077#6 124962720 661786907 661786906#0 661786906#1 661786906#2 661786906#3 661786906#4 124962724#0 124962724#1 255845158#0 255845158#1 231355576#1 231350478#0" />
    </vehicle>
    <vehicle depart="10.19" departLane="best" id="moto24" type="moto_motorcycle">
        <route edges="426506692#0 426506692#1 454749665#0 454749665#1 454749665#2 426506698#1 426506698#2 426506701#0 426506701#1 -79173487#2 519598764#0 -79173487#0 679184990 28712131 426507058 426507052 426507056 426507057 426505699 426505728#0 426505741#1 -426505719#0" />
    </vehicle>
    <vehicle depart="10.61" departLane="best" id="moto25" type="moto_motorcycle">
        <route edges="427243032#5 27668535#1 -27668496#0 -427243102#3 -427243102#2 -427243102#1 -427243102#0 -427243113#0 -427243115#0 -427243117#1 -427243117#0 -427243116#0 -125451142#2 -125451142#1 -125451142#0 425942465#1" />
    </vehicle>
    <vehicle depart="11.04" departLane="best" id="moto26" type="moto_motorcycle">
        <route edges="423987908#2 -337865808#0 -337865806 -462829680 -517676964 426605956#0 426605956#1 426605956#2 426605956#3 359790121#0 359790121#1 359790121#2 426696431#2 426696431#3" />
    </vehicle>
    <vehicle depart="11.89" departLane="best" id="moto28" type="moto_motorcycle">
        <route edges="-192583208#3 -192583208#2 -192583208#1 192583212 192583211#0 -38570166#3 -38570166#2 -38570166#1 39014084#1" />
    </vehicle>
    <vehicle depart="12.31" departLane="best" id="moto29" type="moto_motorcycle">
        <route edges="-450686064 556750747#6 556750747#7 134462812 280118519#1 280118519#2 280118519#3 280118519#6 280118519#7 280118519#8 329094182#1 229480983#1 229480983#2 172308673#1 172308673#2 172308673#3 172308673#4 -27639606#2 -27639606#1" />
    </vehicle>
    <vehicle depart="13.16" departLane="best" id="moto31" type="moto_motorcycle">
        <route edges="27029985 27030077#3 448213345#0 448213345#1 448213345#2 27030077#0 27030077#1 -27030155 545465138#1 545465138#2 -27029997#9 -27029997#8 278992347 -27030002#1 -447117760 27030098 677774759#0 677774759#1 547177360#0 547177360#1 547177360#2 447117759#0 447117759#2 447117759#3 27030129#1 -27030026#0 27030123#0 -27030125#1 -27030125#0 -246307536#1 27030125#1 -27030123#0 27030026#0" />
    </vehicle>
    <vehicle depart="13.58" departLane="best" id="moto32" type="moto_motorcycle">
        <route edges="-430127811 231281375#3 231281375#4 241249712#1 38738786 -427400671#5 430115790" />
    </vehicle>
    <vehicle depart="14.01" departLane="best" id="moto33" type="moto_motorcycle">
        <route edges="133333369#0 -237455937#4 -237455937#3 -237455937#2 -237455937#1 241249698#5 241249698#6 241249698#7 241249698#8 183752945#0 183752945#1 39082314#0 39082314#1 39082314#2 39082314#4 39082304#0 39082304#1 465984315#2" />
    </vehicle>
    <vehicle depart="14.43" departLane="best" id="moto34" type="moto_motorcycle">
        <route edges="39046004#0 39046005#1 39046005#2 39046005#4 39046005#5" />
    </vehicle>
    <vehicle depart="15.71" departLane="best" id="moto37" type="moto_motorcycle">
        <route edges="448209067 448209066 -427400877 -427400913 -38738777#6 -38738777#5 -38738777#4 -38738777#2 -38738777#1 -38738777#0 27030148#0 27030148#1 27030148#2 405489977#0 -27030139#1 -27030139#0 545465138#2 27030143#0 27030143#1" />
    </vehicle>
    <vehicle depart="16.13" departLane="best" id="moto38" type="moto_motorcycle">
        <route edges="59515637#0 59515637#1 59515637#2 39048508#0 39048504#1 39048488#2 39048488#3 39048489#1 39048489#2 -39048494#3 -39048494#2 -39048494#1 -39048494#0 39049679#0 39049679#1 28807588#6 28807588#7 244923485#5 172297072 172297073 221635258#0 221635258#1 221635258#2 221635258#3 265227053#7" />
    </vehicle>
    <vehicle depart="16.56" departLane="best" id="moto39" type="moto_motorcycle">
        <route edges="-27611587 330594185 572095530#3 231715377 231715374#0 231715374#0-AddedOffRampEdge 38631693#0" />
    </vehicle>
    <vehicle depart="17.83" departLane="best" id="moto42" type="moto_motorcycle">
        <route edges="425691414#2 167147474 244936623 25619255#1 425691401#0 425691401#1 425691418#0 425691443 425691444#0 425691444#1 425691408 237455906 426247930#0 426247930#1 324839763 8103459#0 8103459#1 -519691384 -22999960#2 -22999960#1 -22999960#0" />
    </vehicle>
    <vehicle depart="18.68" departLane="best" id="moto44" type="moto_motorcycle">
        <route edges="132236347#4 278992351#0 39081863#1 547305685#0 547305685#1 547305685#2 547305685#3 237455937#0 237455937#1 237455937#2 39082331#11 39082331#12 39082331#13 39082331#14 56394527 241249700#0 -427400712#2 -427400712#1 39120532#1 39120533#0 39120533#1" />
    </vehicle>
    <vehicle depart="19.10" departLane="best" id="moto45" type="moto_motorcycle">
        <route edges="-635718958#1 -438471361 244923471#2 244923471#3 244923471#4 439894872 312295510#0 312295510#1 312295510#2 312295510#3 244923476#0 244923476#1 16768116 16768116-AddedOffRampEdge 628293205 154421024 236732316 244739220 212554514#0" />
    </vehicle>
    <vehicle depart="19.53" departLane="best" id="moto46" type="moto_motorcycle">
        <route edges="78171837#1 -39053430 -78171844#1 -78171844#0 -438225729#1 39053437#0 39053432#0 -39053439 16257975#5 -19796858#2 -19796858#1 -172744182#0 39049665#0 39049665#1 438224045 587922690#16 39049641#0" />
    </vehicle>
    <vehicle depart="19.95" departLane="best" id="moto47" type="moto_motorcycle">
        <route edges="427243118 27691639#1 14521675#2 14521675#3 638729325 578266073#1" />
    </vehicle>
    <vehicle depart="20.38" departLane="best" id="moto48" type="moto_motorcycle">
        <route edges="-430128408 130808658#2 130808658#3 130808660#0 130808660#1 130808660#2 130808660#3 37916629#3 128511294#2 128511294#3 128511294#4 183462529 37916618 371375600#0 371375600#1 128515111 620987193#0 620987193#1 183462527#1 183462563-AddedOnRampEdge 183462563 15260367 15260367-AddedOffRampEdge 15260361 457093355#0 457093355#2 457093355#3 519490880 14517187#0 14517187#1 128523193 519486386#0 519486386#1 272898745 -251629009#3 -251629009#1" />
    </vehicle>
    <vehicle depart="20.80" departLane="best" id="moto49" type="moto_motorcycle">
        <route edges="-330594194 424211905#8 424211905#9 424211755#0 424211755#1 424211755#2 424211755#3 424211755#4 230628537#0 230628537#1 230628537#2 230628537#3 230628537#4 230628537#5 230628537#6 230628537#7 282974683#0 282974683#1 16257538#0 16257538#1 471622246" />
    </vehicle>
    <vehicle depart="21.23" departLane="best" id="moto50" type="moto_motorcycle">
        <route edges="38508529 524255618#1 14409243 454570246 454570245 289936233 454570243 48661212#0 470252930#0 470252930#1 470252930#2 470252930#3 48661200#1 425850165#1 -425850167 -278916129#3 -278916129#2 -278916129#1 -278916129#0 425934198#0 425929169#3 425929172#0 425929172#1 425926581#0" />
    </vehicle>
    <vehicle depart="21.65" departLane="best" id="moto51" type="moto_motorcycle">
        <route edges="627182616#10 -39046625#1 -39046625#0 28807592#0 28807592#1 28807592#3 28807592#4 28807592#5 28807592#6 491638977#0 491638977#1 491638977#2 491638977#3 338991640#2 338991640#3 439894871" />
    </vehicle>
    <vehicle depart="22.50" departLane="best" id="moto53" type="moto_motorcycle">
        <route edges="-128511299 37916557#1 37916557#2 37916568 37916640#3 371375600#1 128515111 620987193#0 620987193#1 229739161#0 229739161#0-AddedOffRampEdge 229739161#1 212723116 168667916 424630809#0 424630809#1 424630809#2 424630809#3 424630809#4 424630809#5 424630809#6 -424630814#2 -424630814#1 -424630814#0 -8579406 22999494 447117762#0 447117762#1 447117762#2" />
    </vehicle>
    <vehicle depart="22.92" departLane="best" id="moto54" type="moto_motorcycle">
        <route edges="-39053434#0 -39053432#4 -39053432#3 -39053432#2 39053438#2 16257975#4 16257975#5 -19796858#2 -19796858#1 -19796858#0 -76695850#3 -76695850#2 127683182 -677781389 -565161446#3 -565161446#2 -39046625#9 -39046625#8 -39046625#7" />
    </vehicle>
    <vehicle depart="23.77" departLane="best" id="moto56" type="moto_motorcycle">
        <route edges="38738786 427400671#6 27030066#0 27030066#1 27030066#2 27030066#3 27030066#4 27030066#5 27030066#6 27030066#7 -244936642 -38738603#2 -38738603#1 -38738603#0 -211455035#4 -211455035#3 -211455035#2 -211455035#1 -211455035#0 211455040 244936647#0 244936647#1 -27030143#4 -27030143#3 -27030143#2 -27030143#1 -27030143#0 -545465138#2 27030139#0" />
    </vehicle>
    <vehicle depart="24.62" departLane="best" id="moto58" type="moto_motorcycle">
        <route edges="545465138#1 27030139#0 27030153 27030077#1 27030077#2 27030077#3 448213345#0" />
    </vehicle>
    <vehicle depart="25.05" departLane="best" id="moto59" type="moto_motorcycle">
        <route edges="430126619#0 430126619#1 430126493#1 430126493#2 430126493#3 -27030008#2 -27030011#0 -27030007 -27030022 27029997#3 27029997#5 -27030027#9 -27030027#6 -27030027#5 299532297#5 -672784703#3 -672784703#2 -672784703#1 -672784703#0" />
    </vehicle>
    <vehicle depart="25.89" departLane="best" id="moto61" type="moto_motorcycle">
        <route edges="424211549#1 424211549#2 424211755#4 230628517#3 230628517#4 230628517#6 230628517#7 230628534#1 230628534#2 196799732 230783567#1 230783567#2 230783567#3 186496572#0 186496572#1 186496572#2 186496572#3 186496572#4 407769038#2 9931243 262851659 8148347 513802091 262851657#0 262851657#1 262851657#2 262851657#3 262851657#4 229480221#0 229480221#1 426510606" />
    </vehicle>
    <vehicle depart="26.32" departLane="best" id="moto62" type="moto_motorcycle">
        <route edges="132236347#2 132236347#3 547177363#1 547177363#3 547177363#4 547305684#0 547305684#2 547305684#3 39082314#0 39082314#1 278992351#4 377399183 377396455#1" />
    </vehicle>
    <vehicle depart="26.74" departLane="best" id="moto63" type="moto_motorcycle">
        <route edges="-27030032#0 310454391 310454390 39081853 447117757#6 447117757#7 132236345#0 132236345#1 132236345#2 672784703#2 672784703#3 672784703#4 672784703#5 251712234#0 251712234#1 27029988 278992352#0 278992352#1 278992352#2 278992352#3 27029992#0 27029992#1 -73532302#5 -73532302#4 -73532302#3 -73532302#2 -447117761 -27029998 -278992352#3" />
    </vehicle>
    <vehicle depart="27.17" departLane="best" id="moto64" type="moto_motorcycle">
        <route edges="38630330#2 38630330#3 565539530 565539527#1 565539527#2 425855680 38508508 425854842 -447927890 -425850167 -278916129#3 -278916129#2 -278916129#1 199121003 62265344#0 62265344#1 38630156#1 679196742#0 679196742#1 679196742#2 679196742#3 679196741 278916128#0 278916128#1 -191510467 -622484037" />
    </vehicle>
    <vehicle depart="27.59" departLane="best" id="moto65" type="moto_motorcycle">
        <route edges="430114472#0 -430114473 445750758#6 27029999#1 39081434#0 39081434#1 39081434#2 39081434#3 39081434#4 39081434#5 246708372#0 246708372#1 246708372#2 211060857#0" />
    </vehicle>
    <vehicle depart="28.02" departLane="best" id="moto66" type="moto_motorcycle">
        <route edges="172433904#3 256314554#0 61819124#0-AddedOnRampEdge 61819124#0 27668192#0 27668192#1" />
    </vehicle>
    <vehicle depart="28.87" departLane="best" id="moto68" type="moto_motorcycle">
        <route edges="430114472#0 -430114473 445750758#6 -27029999#0 -27029998 -278992352#3 -278992352#2 -278992352#1 -27029997#6 -27030027#9 -27030027#6 -27030027#5 -27030027#4 -27030027#3 132236345#4 132236345#5 132236345#6 132236345#7 131655873#0 131655873#1 310454394" />
    </vehicle>
    <vehicle depart="29.72" departLane="best" id="moto70" type="moto_motorcycle">
        <route edges="424630848 424630819#6 424630809#0 424630809#1 424630809#2 424630809#3 424630809#4 424630809#5 424630809#6 -424630814#2 -424630814#1 -424630814#0 -8579406 22999494 134365461#0 134365461#2 134365461#3 134365461#4 134365461#5 134365461#6 211556997#0 211556997#1 513951450 204071640 456380334#0 456380334#1 425457913#0 425457913#1" />
    </vehicle>
    <vehicle depart="30.56" departLane="best" id="moto72" type="moto_motorcycle">
        <route edges="16651445#1 16651445#2 8103468#1 8103468#2 196799735#2 231281381#1 231281381#2 231281385#1 231281385#2 231281389#1 231281389#3 196799737#1 338999840#0 338999840#1 46927933#0 46927933#1 134365461#0 22999960#0 22999960#1" />
    </vehicle>
    <vehicle depart="31.41" departLane="best" id="moto74" type="moto_motorcycle">
        <route edges="56394526#2 465984316 465984317#0 465984317#1 -465984316 -56394526#2 -56394526#0 39082304#0 39082304#1 465984315#2 465984315#3 -56394532#2 -56394532#1 -56394532#0 39117746#0 39117746#8 39117744#4 39117744#5 39117744#6 -217479452#1 -217479452#0 39117774 38738777#4 38738777#5 38738777#6" />
    </vehicle>
    <vehicle depart="31.84" departLane="best" id="moto75" type="moto_motorcycle">
        <route edges="-38709146 272898748 272898745 -251629009#3 37916531#0 37916531#1 128194053#0 37916511#0 37916511#1 37916511#2 431548663 -431548664#0" />
    </vehicle>
    <vehicle depart="32.26" departLane="best" id="moto76" type="moto_motorcycle">
        <route edges="38631710 72614035#0 231713631#0 425929162#0 425929162#0-AddedOffRampEdge 425929162#1 425929162#2 278916131 278916129#1 278916129#2 278916129#3 425850167 425850171#0 425850171#1 369630801#0 369630801#1 369630802#0 38508531 -38508521" />
    </vehicle>
    <vehicle depart="32.69" departLane="best" id="moto77" type="moto_motorcycle">
        <route edges="587922690#20 587922690#21 587922690#22 16765621#0 8578850#0 8578850#1 8578850#2 171849294 426505734#0 426505706 426505711#1 426505705#1 426505715#0 426505715#1 426505717#0 426505717#1 426505709 426505718#0 426505718#1 426505718#2 426505718#3 426505724#1" />
    </vehicle>
    <vehicle depart="33.11" departLane="best" id="moto78" type="moto_motorcycle">
        <route edges="39014083 39014084#0 38570166#1 38570166#2 192583209#1 192583208#1 192583208#2 39048510#0 39048510#2 450506570 192583210#4 192583210#5 28807588#0 28807588#1 -172747396#1" />
    </vehicle>
    <vehicle depart="34.38" departLane="best" id="moto81" type="moto_motorcycle">
        <route edges="-60685694#0 -35472705 -237455922 237455916 237455926#0 -59515636 -39048489#4 -39048489#3 -39048494#3 -172747396#2 -172747396#1 -172747396#0 -172868866 172868867#4 127682584 39048561#0 -39048556#2 -39048556#1 436649364 134463317#1" />
    </vehicle>
    <vehicle depart="34.81" departLane="best" id="moto82" type="moto_motorcycle">
        <route edges="39048435#1 19796862#1 19796862#2 76695850#1 76695850#2 76695850#3 -39049663#0" />
    </vehicle>
    <vehicle depart="35.23" departLane="best" id="moto83" type="moto_motorcycle">
        <route edges="424630828#0 -424632407 -172728802#1 -172728802#0 424630860#9 424630823 279753892#0 279753892#1 424630821 424630824 424630837#1 212723117#3 235497116 128519863#0 128519863#1 235497117#0 235497122 128515118#1-AddedOnRampEdge 128515118#1 128515118#2 128515118#3 128511288#1 37916557#2 37916557#0 37916557#1 -128511288#1" />
    </vehicle>
    <vehicle depart="35.66" departLane="best" id="moto84" type="moto_motorcycle">
        <route edges="-37538137#1 -37538137#0 35472694#0 77707877 565483610#0 565483612 172744259#1 -59515639 -39051672#1 -39051672#0 172743779 537956236 79765662" />
    </vehicle>
    <vehicle depart="36.51" departLane="best" id="moto86" type="moto_motorcycle">
        <route edges="8579169#2 8579169#3 22999494 447117762#0 447117762#1 128521814#0 424630826 22999717" />
    </vehicle>
    <vehicle depart="36.93" departLane="best" id="moto87" type="moto_motorcycle">
        <route edges="37916511#4 621593275 183489045#7 34436963#0 34436963#1 128508551#0 128508551#1 128508560 128508563#9 230398376 17446828 237048431 235497116 168667916 424630809#0 424630809#1 -172728802#2 -172728802#1 -172728802#0 424630860#9 424630823 279753892#0" />
    </vehicle>
    <vehicle depart="37.78" departLane="best" id="moto89" type="moto_motorcycle">
        <route edges="-172868864#0 -595630250 -318221333 -38569951 19797073#0 244923472#0 244923472#1 265227053#16 16768116 16768116-AddedOffRampEdge 628293205 154421024 236732316 417991507#1 154421036" />
    </vehicle>
    <vehicle depart="38.63" departLane="best" id="moto91" type="moto_motorcycle">
        <route edges="171848999#1 171848999#2 -351751479 -128027697#1 -128027697#0 -185627525 185627526 185627512#1 339106278 185627517#1 185627524#0 185627524#1 339106276 -28712212#1 -426505728#3 426505709 426505718#0 426505718#1 426505718#2" />
    </vehicle>
    <vehicle depart="39.05" departLane="best" id="moto92" type="moto_motorcycle">
        <route edges="426607367 27644488#0 27644488#1 359790117#0 646564638 27644485#0 423976020#1 423976020#2 423976021#7 423976021#8 423976021#9 230784030#0 230784030#1 426511342 359790096#1 359790096#2 -359790125#5 -359790125#4 -359790125#3 -359790125#2 490216501 517698789" />
    </vehicle>
    <vehicle depart="39.48" departLane="best" id="moto93" type="moto_motorcycle">
        <route edges="-503239702 -39077817 472104812#0 472104811#1 472104811#2 405498517#0 39056496#0 -171847238#1 39077902 -39077901#1 612083734 76695773#1 39077901#0" />
    </vehicle>
    <vehicle depart="39.90" departLane="best" id="moto94" type="moto_motorcycle">
        <route edges="235497120 424630843 447117762#1 447117762#2 447117762#3 37916545 212723117#0 212723117#1 212723117#3 235497116 168667916 278920581 241926086 16975627 454557950" />
    </vehicle>
    <vehicle depart="41.18" departLane="best" id="moto97" type="moto_motorcycle">
        <route edges="171847607#1 171847607#2 171847607#3 448210019#0 448210019#2 448210019#3 448210021#0 448210021#1 38585125#0 38360276#4" />
    </vehicle>
    <vehicle depart="41.60" departLane="best" id="moto98" type="moto_motorcycle">
        <route edges="-248091972 131655873#1 -672784702#4 -672784702#3 -672784702#2 27030031#1 131655863 27030027#2 132236345#4 -131655864" />
    </vehicle>
    <vehicle depart="42.45" departLane="best" id="moto100" type="moto_motorcycle">
        <route edges="75329379 39053420#1 -39077811 -39077812#0 -39077809#0 471338742#2 39077808 503239702 503239704#0 503239704#1 503239707 -39053416#0 167131058#1 14520294 16257975#0-AddedOnRampEdge 16257975#0 16257975#1 16257975#2 16257975#3 16257975#4 16257975#5 16257975#6 -237470811#3" />
    </vehicle>
    <vehicle depart="43.72" departLane="best" id="moto103" type="moto_motorcycle">
        <route edges="123374521#0 587922690#6 237455931 172745333#0 172745333#1 -237455928#1 -237455928#0 -172744182#1 19796858#1 19796858#2" />
    </vehicle>
    <vehicle depart="44.15" departLane="best" id="moto104" type="moto_motorcycle">
        <route edges="27639673 436325258 436325256#1 646564634 277480298 359790096#1 359790096#2 427253372 427253374#0 427253374#1 427253374#2 172297666#0 172297666#1 172297666#2 -426507056 -426505695#2" />
    </vehicle>
    <vehicle depart="44.57" departLane="best" id="moto105" type="moto_motorcycle">
        <route edges="75329374 -75329371#0 -75329371#1 -75329374 -16238438#5 -16238438#4 -16238438#3 -16238438#2 -16238438#1 -16238438#0 8578538#0 8578538#1 16765621#0 8578850#0 8578850#1 173685911 -171848926#0 -351751479 -39049620#1" />
    </vehicle>
    <vehicle depart="45.00" departLane="best" id="moto106" type="moto_motorcycle">
        <route edges="-27667342#0 426603437#4 426600145#3 359790121#7 359790121#8 359790121#9 359790121#10 359790121#11 359790121#12 426696410#0 426696410#1 426696411 230628530#3 230628530#4 635399925 230628530#7 230628542 426696447 426696421#0 426696421#1 426696421#2" />
    </vehicle>
    <vehicle depart="45.42" departLane="best" id="moto107" type="moto_motorcycle">
        <route edges="184745785#1 37909827#2 37909827#3 598422932 184765907 184765908 184765909#2 184765909#3 184765910 244923483 437233646 128894334 578324316-AddedOnRampEdge 578324316 513802091 262851657#0 262851657#1 262851657#2 -346371676 -404023034#0 -79173487#2 519598764#0 -79173487#0 679184990 28712131 426507058 426507052 426507056 426505719#0 426505740#1 426505695#2" />
    </vehicle>
    <vehicle depart="45.85" departLane="best" id="moto108" type="moto_motorcycle">
        <route edges="24587518#1 231350480#1 231350480#2 632976630#1 632976630#2 436488791#0 436488791#1 16326434#0 27644487#0 27644487#1" />
    </vehicle>
    <vehicle depart="46.27" departLane="best" id="moto109" type="moto_motorcycle">
        <route edges="230628519#7 230628519#8 424211900#1 424211900#2 424211905#5 424211905#6 424211905#8 424211905#9 426696435#0 426696435#1 426696435#2 426696435#3 231355574#1 426696434 359790121#7 359790121#8 359790121#9 359790121#10 359790121#11 359790121#12 426696410#0 426696410#1 426696411 230628530#3 230628530#4 635399925 230628530#7 230628533#0 230628533#1" />
    </vehicle>
    <vehicle depart="46.70" departLane="best" id="moto110" type="moto_motorcycle">
        <route edges="229480983#1 27639608#0 27639608#1 27639608#2 27639608#3 27639608#4 27639585#3 27639585#4 27639585#5 27639561#0 27639561#1 27639561#2 27644492#0 27644492#1 -27644520#5 373580560 -27639647#1 -27639647#0 -401760473#0 401760472" />
    </vehicle>
    <vehicle depart="47.12" departLane="best" id="moto111" type="moto_motorcycle">
        <route edges="-27030005#1 -27030005#0 448213345#0 448213345#1 448213345#2 -405489977#1 -405489977#0 -27030148#2 -27030148#1 -27030148#0 38738777#0 38738777#1 38738776#0 38738776#1 38738776#2 -38738605#6 -339103685#1 -339103685#0" />
    </vehicle>
    <vehicle depart="47.97" departLane="best" id="moto113" type="moto_motorcycle">
        <route edges="-427243046 638729322#9 638729322#10 638729322#11 577924801 28725762 176499525 241249712#8 241249712#10 427400766#1 427400766#3 427400867#2 477789804#0 38738779#0 38738779#1 38738774#3 38738764#0" />
    </vehicle>
    <vehicle depart="48.39" departLane="best" id="moto114" type="moto_motorcycle">
        <route edges="39046429 172868947#1 595630254 615324080#0 615324080#2 239019889#0 239019889#1 244739220 212554514#0 212554514#1 212554514#2 261605996 39045999 438468040 39046005#2 39046000" />
    </vehicle>
    <vehicle depart="48.82" departLane="best" id="moto115" type="moto_motorcycle">
        <route edges="407757111#4 407757111#5 -27667447#1 -27667447#0 255818924#4 8578872#0 8578872#1 426603437#8" />
    </vehicle>
    <vehicle depart="49.67" departLane="best" id="moto117" type="moto_motorcycle">
        <route edges="427253372 24587518#0 24587518#1 427253366#4 427253366#7 230784087#1 230784087#3 230784087#4 231350481#0 231350481#1 231350481#2 231350481#3 231350451 231350454 231350473#0 231350473#1 14520867 231350478#2 426605959#1 423976021#0 423976021#1 423976021#2 423976021#3 423976021#4 205998238" />
    </vehicle>
    <vehicle depart="50.09" departLane="best" id="moto118" type="moto_motorcycle">
        <route edges="427018862#2 427018761#2 427018817#2 427018758#3 427018758#4 427018758#5 427018829#3 427018829#4 27570521#1 27570522 231355582#3 369915386 255845168 239019906" />
    </vehicle>
    <vehicle depart="50.52" departLane="best" id="moto119" type="moto_motorcycle">
        <route edges="-255818924#5 -255818924#4 -255818924#3 -255818924#2 -255818924#1 -255818924#0 324839764 517676964 462829680 337865806 337865808#0 337865808#1 337865808#2 337865808#3 -276664815#1 -439768949 -521396097 -239019901#2 27660286 427018779#0 427018779#1 427018779#2 427018775#3 188303695#1" />
    </vehicle>
    <vehicle depart="52.21" departLane="best" id="moto123" type="moto_motorcycle">
        <route edges="-27667565 27667447#1 8547794#1 8547794#2 415845846 325044597#0 325044597#1 351360736 325044599#0 -27660306 -337865808#1" />
    </vehicle>
    <vehicle depart="52.64" departLane="best" id="moto124" type="moto_motorcycle">
        <route edges="127683181 39048448 76695850#1 76695850#2 76695850#3 39049663#1 39049665#0 39049665#1 438224045 16257975#2 39053433#0 39053435 39053431#1 39053431#2 39053431#3 -16238438#0 39053412#0 39053412#1 39053412#2 39053421#5 39053407#1 39053409 39077816#2 187039613#0 -39053414" />
    </vehicle>
    <vehicle depart="53.06" departLane="best" id="moto125" type="moto_motorcycle">
        <route edges="423496969 358278704#0 358278704#1 423497710#0 -424421112#1 -424421112#0 -424421108 424421117 152424413#1 -420115994 420115996 152424414#1 152424414#2 152424414#3" />