<routes xmlns:xsi="http://www.w3.org/2001/XMLSchema-instance" xsi:noNamespaceSchemaLocation="http://sumo.dlr.de/xsd/routes_file.xsd">
    <vType id="veh_passenger" vClass="passenger">
    </vType>
    <trip depart="0.54" departLane="best" from="39117743#0" id="veh2" to="39082313#1" type="veh_passenger" />
    <trip depart="0.81" departLane="best" from="471659281" id="veh3" to="-27644490#0" type="veh_passenger" />
    <trip depart="1.08" departLane="best" from="184765909#3" id="veh4" to="-183853709" type="veh_passenger" />
    <trip depart="1.35" departLane="best" from="-430127812" id="veh5" to="27639631#1" type="veh_passenger" />
    <trip depart="1.89" departLane="best" from="370514752#0" id="veh7" to="321139490#2" type="veh_passenger" />
    <trip depart="2.43" departLane="best" from="426696438" id="veh9" to="-128511300" type="veh_passenger" />
    <trip depart="2.70" departLane="best" from="426605965#3" id="veh10" to="420920879" type="veh_passenger" />
    <trip depart="2.97" departLane="best" from="128508553" id="veh11" to="-39117758#0" type="veh_passenger" />
    <trip depart="3.78" departLane="best" from="430127944" id="veh14" to="37916524#0" type="veh_passenger" />
    <trip depart="4.59" departLane="best" from="15069448" id="veh17" to="330594194" type="veh_passenger" />
    <trip depart="5.40" departLane="best" from="39048446" id="veh20" to="-230784037" type="veh_passenger" />
    <trip depart="5.67" departLane="best" from="-430128169" id="veh21" to="134363382" type="veh_passenger" />
    <trip depart="5.94" departLane="best" from="-27639666" id="veh22" to="-547305685#1" type="veh_passenger" />
    <trip depart="6.21" departLane="best" from="-34439046#5" id="veh23" to="130808658#2" type="veh_passenger" />
    <trip depart="6.48" departLane="best" from="359790090#1" id="veh24" to="199918917#2" type="veh_passenger" />
    <trip depart="6.75" departLane="best" from="134462241#4" id="veh25" to="-445750758#0" type="veh_passenger" />
    <trip depart="7.02" departLane="best" from="-450505896" id="veh26" to="56394188" type="veh_passenger" />
    <trip depart="7.83" departLane="best" from="-39117758#3" id="veh29" to="229480982#1" type="veh_passenger" />
    <trip depart="8.10" departLane="best" from="8578539#0" id="veh30" to="39046427#3" type="veh_passenger" />
    <trip depart="8.37" departLane="best" from="27030032#0" id="veh31" to="39120553#1" type="veh_passenger" />
    <trip depart="8.91" departLane="best" from="-430128406" id="veh33" to="-188303695#1" type="veh_passenger" />
    <trip depart="9.18" departLane="best" from="-632976617#1" id="veh34" to="127683182" type="veh_passenger" />
    <trip depart="10.27" departLane="best" from="517412540" id="veh38" to="251628568#2" type="veh_passenger" />
    <trip depart="10.54" departLane="best" from="-448209065#3" id="veh39" to="-661529405" type="veh_passenger" />
    <trip depart="11.35" departLane="best" from="172297061#1" id="veh42" to="-472258016" type="veh_passenger" />
    <trip depart="11.62" departLane="best" from="85796593#2" id="veh43" to="27639666" type="veh_passenger" />
    <trip depart="11.89" departLane="best" from="-28807664#2" id="veh44" to="-233446236#0" type="veh_passenger" />
    <trip depart="13.24" departLane="best" from="72614019#0" id="veh49" to="448210021#1" type="veh_passenger" />
    <trip depart="13.51" departLane="best" from="-151882388#1" id="veh50" to="424630827#1" type="veh_passenger" />
    <trip depart="13.78" departLane="best" from="38585122#0" id="veh51" to="28807664#1" type="veh_passenger" />
    <trip depart="14.59" departLane="best" from="221635259" id="veh54" to="615324080#0" type="veh_passenger" />
    <trip depart="14.86" departLane="best" from="451659856#0" id="veh55" to="124962725#1" type="veh_passenger" />
    <trip depart="15.13" departLane="best" from="237048465#1" id="veh56" to="-427348529" type="veh_passenger" />
    <trip depart="15.40" departLane="best" from="514557406" id="veh57" to="454576373" type="veh_passenger" />
    <trip depart="15.67" departLane="best" from="-517698790" id="veh58" to="39046111#0" type="veh_passenger" />
    <trip depart="15.94" departLane="best" from="290026189#0" id="veh59" to="-39082320#1" type="veh_passenger" />
    <trip depart="16.21" departLane="best" from="424217262#2" id="veh60" to="301151224" type="veh_passenger" />
    <trip depart="16.75" departLane="best" from="-124962747#2" id="veh62" to="172297075#5" type="veh_passenger" />
    <trip depart="17.56" departLane="best" from="-56394526#2" id="veh65" to="-244936654#3" type="veh_passenger" />
    <trip depart="18.10" departLane="best" from="-27667565" id="veh67" to="27030155" type="veh_passenger" />
    <trip depart="18.64" departLane="best" from="424396207#3" id="veh69" to="-39014081#1" type="veh_passenger" />
    <trip depart="18.91" departLane="best" from="231281381#2" id="veh70" to="329094557#3" type="veh_passenger" />
    <trip depart="19.18" departLane="best" from="-448209065#3" id="veh71" to="454683135" type="veh_passenger" />
    <trip depart="19.45" departLane="best" from="184855988#4" id="veh72" to="-448210019#2" type="veh_passenger" />
    <trip depart="19.72" departLane="best" from="252790571#5" id="veh73" to="425854842" type="veh_passenger" />
    <trip depart="21.07" departLane="best" from="127682584" id="veh78" to="37538137#0" type="veh_passenger" />
    <trip depart="21.61" departLane="best" from="-27586531" id="veh80" to="38740544" type="veh_passenger" />
    <trip depart="21.88" departLane="best" from="-430128406" id="veh81" to="493709855#1" type="veh_passenger" />
    <trip depart="22.15" departLane="best" from="436647799" id="veh82" to="-27030009" type="veh_passenger" />
    <trip depart="22.96" departLane="best" from="577926288" id="veh85" to="359889890#2" type="veh_passenger" />
    <trip depart="24.04" departLane="best" from="184855991#4" id="veh89" to="257177219#3" type="veh_passenger" />
    <trip depart="24.31" departLane="best" from="39081849#5" id="veh90" to="39081856#0" type="veh_passenger" />
    <trip depart="24.85" departLane="best" from="172309981#1" id="veh92" to="183853709" type="veh_passenger" />
    <trip depart="25.12" departLane="best" from="438225725" id="veh93" to="-672784703#0" type="veh_passenger" />
    <trip depart="25.39" departLane="best" from="-427253378" id="veh94" to="244936670#1" type="veh_passenger" />
    <trip depart="25.66" departLane="best" from="184765909#2" id="veh95" to="130808662" type="veh_passenger" />
    <trip depart="25.93" departLane="best" from="-436333197#1" id="veh96" to="519490875" type="veh_passenger" />
    <trip depart="26.20" departLane="best" from="203314697" id="veh97" to="449611216#1" type="veh_passenger" />
    <trip depart="26.47" departLane="best" from="265227053#7" id="veh98" to="-236899704" type="veh_passenger" />
    <trip depart="26.74" departLane="best" from="8579904#1" id="veh99" to="436333185#0" type="veh_passenger" />
    <trip depart="27.01" departLane="best" from="68280085#3" id="veh100" to="524259839-AddedOnRampEdge" type="veh_passenger" />
    <trip depart="27.28" departLane="best" from="430128047#0" id="veh101" to="-425934225" type="veh_passenger" />
    <trip depart="28.09" departLane="best" from="151882388#1" id="veh104" to="8103468#1" type="veh_passenger" />
    <trip depart="28.36" departLane="best" from="-448209066" id="veh105" to="430115790" type="veh_passenger" />
    <trip depart="28.63" departLane="best" from="227607069" id="veh106" to="237212803#2" type="veh_passenger" />
    <trip depart="29.18" departLane="best" from="27030026#0" id="veh108" to="424586863#1" type="veh_passenger" />
    <trip depart="29.45" departLane="best" from="-39080227" id="veh109" to="14520294" type="veh_passenger" />
    <trip depart="29.99" departLane="best" from="255838497#3" id="veh111" to="426510609" type="veh_passenger" />
    <trip depart="30.26" departLane="best" from="-251712235#1" id="veh112" to="373575837#0" type="veh_passenger" />
    <trip depart="30.80" departLane="best" from="-39081428#2" id="veh114" to="638729322#2" type="veh_passenger" />
    <trip depart="31.07" departLane="best" from="-27639666" id="veh115" to="-430118177#0" type="veh_passenger" />
    <trip depart="31.34" departLane="best" from="27691796#1" id="veh116" to="39081891#0" type="veh_passenger" />
    <trip depart="31.61" departLane="best" from="-430128619" id="veh117" to="-38550804#0" type="veh_passenger" />
    <trip depart="32.15" departLane="best" from="27691635#4" id="veh119" to="38630338#1" type="veh_passenger" />
    <trip depart="32.42" departLane="best" from="184013915#2" id="veh120" to="37253818" type="veh_passenger" />
    <trip depart="32.69" departLane="best" from="244936647#1" id="veh121" to="558094283" type="veh_passenger" />
    <trip depart="32.96" departLane="best" from="-430119363" id="veh122" to="424421108" type="veh_passenger" />
    <trip depart="33.23" departLane="best" from="-431546440" id="veh123" to="230784028#2" type="veh_passenger" />
    <trip depart="33.50" departLane="best" from="37916527#4" id="veh124" to="15260500#0" type="veh_passenger" />
    <trip depart="33.77" departLane="best" from="-635705576" id="veh125" to="426600404" type="veh_passenger" />
    <trip depart="34.04" departLane="best" from="-27587534#0" id="veh126" to="250047718#1" type="veh_passenger" />
    <trip depart="34.58" departLane="best" from="-27639582#1" id="veh128" to="-451481106#0" type="veh_passenger" />
    <trip depart="35.12" departLane="best" from="454745478#1" id="veh130" to="465984314" type="veh_passenger" />
    <trip depart="35.39" departLane="best" from="134462238#1" id="veh131" to="-401300455#0" type="veh_passenger" />
    <trip depart="35.66" departLane="best" from="430114472#0" id="veh132" to="424210762#1" type="veh_passenger" />
    <trip depart="35.93" departLane="best" from="310454388#0" id="veh133" to="8375715#1" type="veh_passenger" />
    <trip depart="37.01" departLane="best" from="-39048475#1" id="veh137" to="-37916524#3" type="veh_passenger" />
    <trip depart="37.28" departLane="best" from="-37538137#0" id="veh138" to="330594204" type="veh_passenger" />
    <trip depart="37.82" departLane="best" from="39053420#0" id="veh140" to="-431548666#0" type="veh_passenger" />
    <trip depart="38.36" departLane="best" from="231404788#2" id="veh142" to="493709855#1" type="veh_passenger" />
    <trip depart="38.90" departLane="best" from="184855991#4" id="veh144" to="128675561#0" type="veh_passenger" />
    <trip depart="39.71" departLane="best" from="39120544#0" id="veh147" to="330594187#1" type="veh_passenger" />
    <trip depart="40.52" departLane="best" from="490216499#0" id="veh150" to="322969633" type="veh_passenger" />
    <trip depart="41.33" departLane="best" from="-565161446#0" id="veh153" to="490216495#1" type="veh_passenger" />
    <trip depart="42.14" departLane="best" from="-436333197#1" id="veh156" to="-33968268" type="veh_passenger" />
    <trip depart="42.68" departLane="best" from="172745482#1" id="veh158" to="38630650#3" type="veh_passenger" />
    <trip depart="43.22" departLane="best" from="439630284" id="veh160" to="72767330" type="veh_passenger" />
    <trip depart="44.03" departLane="best" from="124962722" id="veh163" to="547305684#0" type="veh_passenger" />
    <trip depart="44.30" departLane="best" from="426599085" id="veh164" to="450555265" type="veh_passenger" />
    <trip depart="44.57" departLane="best" from="426927713#1" id="veh165" to="125451135#1" type="veh_passenger" />
    <trip depart="45.38" departLane="best" from="-430127946" id="veh168" to="430128408" type="veh_passenger" />
    <trip depart="45.65" departLane="best" from="230395380#0" id="veh169" to="16238213#2" type="veh_passenger" />
    <trip depart="45.92" departLane="best" from="426505734#2" id="veh170" to="-514557409" type="veh_passenger" />
    <trip depart="46.19" departLane="best" from="-184745785#1" id="veh171" to="-430126494#0" type="veh_passenger" />
    <trip depart="46.46" departLane="best" from="-8579169#3" id="veh172" to="450678401" type="veh_passenger" />
    <trip depart="46.73" departLane="best" from="679174598#0" id="veh173" to="131628104#0" type="veh_passenger" />
    <trip depart="47.00" departLane="best" from="369630802#1" id="veh174" to="231281385#2" type="veh_passenger" />
    <trip depart="47.27" departLane="best" from="79160529" id="veh175" to="28807592#3" type="veh_passenger" />
    <trip depart="47.54" departLane="best" from="587922690#0" id="veh176" to="-37916524#2" type="veh_passenger" />
    <trip depart="47.81" departLane="best" from="71958447#4" id="veh177" to="-427348456" type="veh_passenger" />
    <trip depart="48.08" departLane="best" from="672784702#0" id="veh178" to="124962784" type="veh_passenger" />
    <trip depart="48.36" departLane="best" from="-377396455#1" id="veh179" to="239019906" type="veh_passenger" />
    <trip depart="48.63" departLane="best" from="39081435" id="veh180" to="16765274#3" type="veh_passenger" />
    <trip depart="50.25" departLane="best" from="39120556#0" id="veh186" to="39081424#2" type="veh_passenger" />
    <trip depart="51.33" departLane="best" from="39053436#1" id="veh190" to="15263136#0" type="veh_passenger" />
    <trip depart="51.60" departLane="best" from="-577930659#0" id="veh191" to="231355575#8" type="veh_passenger" />
    <trip depart="52.41" departLane="best" from="587922690#4" id="veh194" to="39082320#0" type="veh_passenger" />
    <trip depart="52.68" departLane="best" from="488673698" id="veh195" to="38583815#0" type="veh_passenger" />
    <trip depart="52.95" departLane="best" from="-519183088" id="veh196" to="325044597#1" type="veh_passenger" />
    <trip depart="53.49" departLane="best" from="192583209#0" id="veh198" to="369907209#4" type="veh_passenger" />
    <trip depart="54.57" departLane="best" from="345301157#1" id="veh202" to="183462546" type="veh_passenger" />
    <trip depart="55.38" departLane="best" from="-430115790" id="veh205" to="-172297063#4" type="veh_passenger" />
    <trip depart="55.65" departLane="best" from="-431550230" id="veh206" to="269678077#6" type="veh_passenger" />
    <trip depart="55.92" departLane="best" from="430128415#0" id="veh207" to="-27030031#4" type="veh_passenger" />
    <trip depart="56.19" departLane="best" from="183489045#10-AddedOffRampEdge" id="veh208" to="38738784" type="veh_passenger" />
    <trip depart="57.00" departLane="best" from="37538109#1" id="veh211" to="-128508558#1" type="veh_passenger" />
    <trip depart="57.27" departLane="best" from="420949442#1" id="veh212" to="427243118" type="veh_passenger" />
    <trip depart="58.35" departLane="best" from="-436333197#0" id="veh216" to="438470921" type="veh_passenger" />
    <trip depart="58.62" departLane="best" from="229480222" id="veh217" to="430127541" type="veh_passenger" />
    <trip depart="58.89" departLane="best" from="37916435" id="veh218" to="8547727#0" type="veh_passenger" />
    <trip depart="59.16" departLane="best" from="27691979" id="veh219" to="59515641#0" type="veh_passenger" />
    <trip depart="59.43" departLane="best" from="471338742#1" id="veh220" to="38508522" type="veh_passenger" />
    <trip depart="59.70" departLane="best" from="39053433#0" id="veh221" to="27639629#1" type="veh_passenger" />
    <trip depart="59.97" departLane="best" from="427400867#1" id="veh222" to="325044597#0" type="veh_passenger" />
    <trip depart="60.51" departLane="best" from="231281375#2" id="veh224" to="-8103459#2" type="veh_passenger" />
    <trip depart="60.78" departLane="best" from="-436325257" id="veh225" to="39046000" type="veh_passenger" />
    <trip depart="61.32" departLane="best" from="334434102#0" id="veh227" to="128515117#0" type="veh_passenger" />
    <trip depart="61.59" departLane="best" from="-27639638" id="veh228" to="133124798#0" type="veh_passenger" />
    <trip depart="62.67" departLane="best" from="39048479" id="veh232" to="-251629009#1" type="veh_passenger" />
    <trip depart="63.21" departLane="best" from="183752954#0" id="veh234" to="-438225725" type="veh_passenger" />
    <trip depart="63.48" departLane="best" from="184013925#0" id="veh235" to="493709855#0" type="veh_passenger" />
    <trip depart="63.75" departLane="best" from="27639673" id="veh236" to="418365025#1" type="veh_passenger" />
    <trip depart="64.56" departLane="best" from="130808657#0" id="veh239" to="426603442#1" type="veh_passenger" />
    <trip depart="65.10" departLane="best" from="184012484" id="veh241" to="426507060#1" type="veh_passenger" />
    <trip depart="65.64" departLane="best" from="-430127941" id="veh243" to="-472258016" type="veh_passenger" />
    <trip depart="65.91" departLane="best" from="196799738#0" id="veh244" to="-172868948" type="veh_passenger" />
    <trip depart="66.45" departLane="best" from="172728794" id="veh246" to="-425930848" type="veh_passenger" />
    <trip depart="66.99" departLane="best" from="330594195#1" id="veh248" to="-172744225" type="veh_passenger" />
    <trip depart="67.26" departLane="best" from="16975933" id="veh249" to="351360736" type="veh_passenger" />
    <trip depart="67.53" departLane="best" from="-192764534" id="veh250" to="39048440#0" type="veh_passenger" />
    <trip depart="67.81" departLane="best" from="-39048494#4" id="veh251" to="252792311" type="veh_passenger" />
    <trip depart="68.08" departLane="best" from="-244936600" id="veh252" to="229480221#1" type="veh_passenger" />
    <trip depart="68.62" departLane="best" from="424211905#2" id="veh254" to="229480221#1" type="veh_passenger" />
    <trip depart="69.16" departLane="best" from="-436333210" id="veh256" to="-27639597" type="veh_passenger" />
    <trip depart="69.43" departLane="best" from="-172728802#1" id="veh257" to="301151225#0" type="veh_passenger" />
    <trip depart="69.70" departLane="best" from="9931242#0" id="veh258" to="186371501#3" type="veh_passenger" />
    <trip depart="69.97" departLane="best" from="370514752#3" id="veh259" to="428111145#0" type="veh_passenger" />
    <trip depart="70.78" departLane="best" from="-172744389" id="veh262" to="-39081889" type="veh_passenger" />
    <trip depart="71.05" departLane="best" from="-38738779#1" id="veh263" to="39080244#4" type="veh_passenger" />
    <trip depart="71.32" departLane="best" from="27333554#0" id="veh264" to="-469771179#0" type="veh_passenger" />
    <trip depart="71.59" departLane="best" from="39046005#6" id="veh265" to="427243056#0" type="veh_passenger" />
    <trip depart="71.86" departLane="best" from="-418365015" id="veh266" to="37916640#0" type="veh_passenger" />
    <trip depart="72.13" departLane="best" from="409861330#1" id="veh267" to="-37916466" type="veh_passenger" />
    <trip depart="72.40" departLane="best" from="427243088#3" id="veh268" to="661786916" type="veh_passenger" />
    <trip depart="73.21" departLane="best" from="649260345" id="veh271" to="230784033#4" type="veh_passenger" />
    <trip depart="73.48" departLane="best" from="39051666" id="veh272" to="-27030139#5" type="veh_passenger" />
    <trip depart="73.75" departLane="best" from="38738605#5" id="veh273" to="38738612#2" type="veh_passenger" />
    <trip depart="74.02" departLane="best" from="-35472705" id="veh274" to="427348429" type="veh_passenger" />
    <trip depart="74.29" departLane="best" from="430128618" id="veh275" to="37916449#1" type="veh_passenger" />
    <trip depart="74.56" departLane="best" from="-38631692#0" id="veh276" to="79765662" type="veh_passenger" />
    <trip depart="74.83" departLane="best" from="425925625" id="veh277" to="185627524#1" type="veh_passenger" />
    <trip depart="75.64" departLane="best" from="430128415#0" id="veh280" to="430128620" type="veh_passenger" />
    <trip depart="75.91" departLane="best" from="-370514752#0" id="veh281" to="638729322#2" type="veh_passenger" />
    <trip depart="76.45" departLane="best" from="39048489#3" id="veh283" to="239019913#1" type="veh_passenger" />
    <trip depart="77.26" departLane="best" from="252274187#1-AddedOffRampEdge" id="veh286" to="27030123#0" type="veh_passenger" />
    <trip depart="77.80" departLane="best" from="-450686064" id="veh288" to="438471390#1" type="veh_passenger" />
    <trip depart="78.34" departLane="best" from="456291853" id="veh290" to="-635718958#0" type="veh_passenger" />
    <trip depart="78.61" departLane="best" from="230628521#3" id="veh291" to="38360276#5" type="veh_passenger" />
    <trip depart="79.15" departLane="best" from="430128621" id="veh293" to="-427400818#0" type="veh_passenger" />
    <trip depart="79.96" departLane="best" from="39046123#1" id="veh296" to="128521814#1" type="veh_passenger" />
    <trip depart="80.23" departLane="best" from="-142906167#0" id="veh297" to="587922690#6" type="veh_passenger" />
    <trip depart="80.50" departLane="best" from="-27667565" id="veh298" to="424630819#6" type="veh_passenger" />
    <trip depart="81.58" departLane="best" from="-310454397" id="veh302" to="-490216495#0" type="veh_passenger" />
    <trip depart="81.85" departLane="best" from="38738764#0" id="veh303" to="16257527" type="veh_passenger" />
    <trip depart="82.12" departLane="best" from="27639642#1" id="veh304" to="265726446" type="veh_passenger" />
    <trip depart="82.39" departLane="best" from="248091966" id="veh305" to="237455934#0" type="veh_passenger" />
    <trip depart="82.66" departLane="best" from="405498517#0" id="veh306" to="172868748#2" type="veh_passenger" />
    <trip depart="82.93" departLane="best" from="39046625#9" id="veh307" to="128508563#6" type="veh_passenger" />
    <trip depart="83.20" departLane="best" from="-436333209" id="veh308" to="-38570166#0" type="veh_passenger" />
    <trip depart="83.74" departLane="best" from="251629009#0" id="veh310" to="427018768" type="veh_passenger" />
    <trip depart="84.28" departLane="best" from="231350483#0" id="veh312" to="425457913#1" type="veh_passenger" />
    <trip depart="84.82" departLane="best" from="-490216495#1" id="veh314" to="-337865808#2" type="veh_passenger" />
    <trip depart="85.09" departLane="best" from="-427400793#2" id="veh315" to="-514557409" type="veh_passenger" />
    <trip depart="85.63" departLane="best" from="248091980#0" id="veh317" to="128515117#0" type="veh_passenger" />
    <trip depart="85.90" departLane="best" from="75316979#1" id="veh318" to="330594204" type="veh_passenger" />
    <trip depart="86.17" departLane="best" from="39014094" id="veh319" to="-38738777#2" type="veh_passenger" />
    <trip depart="86.44" departLane="best" from="447117757#4" id="veh320" to="27570519" type="veh_passenger" />
    <trip depart="86.71" departLane="best" from="449611525" id="veh321" to="369907159#1" type="veh_passenger" />
    <trip depart="87.26" departLane="best" from="-426605969" id="veh323" to="-237212807#0" type="veh_passenger" />
    <trip depart="87.53" departLane="best" from="589515206#13" id="veh324" to="27030017#2" type="veh_passenger" />
    <trip depart="88.34" departLane="best" from="-246307536#2" id="veh327" to="-39081424#1" type="veh_passenger" />
    <trip depart="88.61" departLane="best" from="27238962#2" id="veh328" to="15808064#1" type="veh_passenger" />
    <trip depart="89.15" departLane="best" from="424389513#4" id="veh330" to="37916601" type="veh_passenger" />
    <trip depart="89.69" departLane="best" from="244936639" id="veh332" to="245893027" type="veh_passenger" />
    <trip depart="90.23" departLane="best" from="8578566#1" id="veh334" to="16238438#1" type="veh_passenger" />
    <trip depart="90.77" departLane="best" from="39120530" id="veh336" to="587922690#19" type="veh_passenger" />
    <trip depart="91.04" departLane="best" from="-430123092" id="veh337" to="-448209064#0" type="veh_passenger" />
    <trip depart="91.58" departLane="best" from="-424630837#0" id="veh339" to="-27030125#0" type="veh_passenger" />
    <trip depart="91.85" departLane="best" from="-128519864" id="veh340" to="245893027" type="veh_passenger" />
    <trip depart="92.12" departLane="best" from="27691635#0" id="veh341" to="134462239#1" type="veh_passenger" />
    <trip depart="92.39" departLane="best" from="-430128409" id="veh342" to="424211905#1" type="veh_passenger" />
    <trip depart="92.66" departLane="best" from="39048400" id="veh343" to="246848875" type="veh_passenger" />
    <trip depart="93.20" departLane="best" from="425934198#2" id="veh345" to="38738604" type="veh_passenger" />
    <trip depart="93.47" departLane="best" from="37909859#0" id="veh346" to="557392497#1" type="veh_passenger" />
    <trip depart="93.74" departLane="best" from="185627523" id="veh347" to="321139486" type="veh_passenger" />
    <trip depart="94.55" departLane="best" from="-401300455#3" id="veh350" to="16257975#4" type="veh_passenger" />
    <trip depart="95.09" departLane="best" from="-504569149" id="veh352" to="-38738605#1" type="veh_passenger" />
    <trip depart="95.63" departLane="best" from="59515645#1" id="veh354" to="27639586#3" type="veh_passenger" />
    <trip depart="95.90" departLane="best" from="234501228" id="veh355" to="-27639585#1" type="veh_passenger" />
    <trip depart="96.44" departLane="best" from="-72614060" id="veh357" to="-678536329" type="veh_passenger" />
    <trip depart="96.71" departLane="best" from="-293597698#1" id="veh358" to="639543654#1" type="veh_passenger" />
    <trip depart="97.52" departLane="best" from="37916536#2" id="veh361" to="128508554" type="veh_passenger" />
    <trip depart="97.79" departLane="best" from="-230629153" id="veh362" to="426696423" type="veh_passenger" />
    <trip depart="98.87" departLane="best" from="233692924" id="veh366" to="-277478974#0" type="veh_passenger" />
    <trip depart="99.14" departLane="best" from="128515119" id="veh367" to="176499525" type="veh_passenger" />
    <trip depart="99.41" departLane="best" from="37916494#2" id="veh368" to="447927890" type="veh_passenger" />
    <trip depart="99.68" departLane="best" from="105411943" id="veh369" to="416453603" type="veh_passenger" />
    <trip depart="100.49" departLane="best" from="227607069" id="veh372" to="16765621#2" type="veh_passenger" />
    <trip depart="100.76" departLane="best" from="-72767328" id="veh373" to="679196742#0" type="veh_passenger" />
    <trip depart="101.03" departLane="best" from="172728794" id="veh374" to="27660301" type="veh_passenger" />
    <trip depart="101.30" departLane="best" from="8375719#0" id="veh375" to="39053432#4" type="veh_passenger" />
    <trip depart="101.57" departLane="best" from="255845156#1-AddedOnRampEdge" id="veh376" to="232196570#1" type="veh_passenger" />
    <trip depart="101.84" departLane="best" from="-427243076" id="veh377" to="19797649#3" type="veh_passenger" />
    <trip depart="102.38" departLane="best" from="424211753#0" id="veh379" to="-431548666#0" type="veh_passenger" />
    <trip depart="102.65" departLane="best" from="263278290" id="veh380" to="53801293" type="veh_passenger" />
    <trip depart="102.92" departLane="best" from="19797649#2" id="veh381" to="422062695#0" type="veh_passenger" />
    <trip depart="103.19" departLane="best" from="-38709145" id="veh382" to="71958447#4" type="veh_passenger" />
    <trip depart="103.73" departLane="best" from="-39081849#9" id="veh384" to="329613766#0" type="veh_passenger" />
    <trip depart="105.08" departLane="best" from="39053416#0" id="veh389" to="27639660" type="veh_passenger" />
    <trip depart="105.35" departLane="best" from="-465895358" id="veh390" to="436325259" type="veh_passenger" />
    <trip depart="105.62" departLane="best" from="78407131#4" id="veh391" to="-635718958#0" type="veh_passenger" />
    <trip depart="105.89" departLane="best" from="269678074#0" id="veh392" to="230395374#1" type="veh_passenger" />
    <trip depart="106.16" departLane="best" from="53826080#0" id="veh393" to="27639660" type="veh_passenger" />
    <trip depart="106.44" departLane="best" from="454601627" id="veh394" to="450555265" type="veh_passenger" />
    <trip depart="106.98" departLane="best" from="183489045#7" id="veh396" to="558094283" type="veh_passenger" />
    <trip depart="107.52" departLane="best" from="-490216495#1" id="veh398" to="151882388#2" type="veh_passenger" />
    <trip depart="107.79" departLane="best" from="27644489#1" id="veh399" to="8841627#1" type="veh_passenger" />
    <trip depart="108.33" departLane="best" from="252790570#0" id="veh401" to="184855990" type="veh_passenger" />
    <trip depart="108.60" departLane="best" from="269678077#4" id="veh402" to="312295511#0" type="veh_passenger" />
    <trip depart="108.87" departLane="best" from="228351158#1" id="veh403" to="172297061#0" type="veh_passenger" />
    <trip depart="109.14" departLane="best" from="-427243102#3" id="veh404" to="419513797#1" type="veh_passenger" />
    <trip depart="109.41" departLane="best" from="27639561#0" id="veh405" to="-557392497#0" type="veh_passenger" />
    <trip depart="110.49" departLane="best" from="37916346#0" id="veh409" to="430128562" type="veh_passenger" />
    <trip depart="111.03" departLane="best" from="-229082105" id="veh411" to="27639613#0" type="veh_passenger" />
    <trip depart="111.57" departLane="best" from="450680119" id="veh413" to="242493821" type="veh_passenger" />
    <trip depart="111.84" departLane="best" from="245958752#0" id="veh414" to="248091975" type="veh_passenger" />
    <trip depart="112.11" departLane="best" from="39056467" id="veh415" to="231355593#0" type="veh_passenger" />
    <trip depart="112.65" departLane="best" from="230628808#0" id="veh417" to="679178792" type="veh_passenger" />
    <trip depart="112.92" departLane="best" from="128027578" id="veh418" to="410081053-AddedOnRampEdge" type="veh_passenger" />
    <trip depart="113.19" departLane="best" from="370514751" id="veh419" to="438471390#1" type="veh_passenger" />
    <trip depart="113.46" departLane="best" from="430128808" id="veh420" to="448209067" type="veh_passenger" />
    <trip depart="114.00" departLane="best" from="39053431#3" id="veh422" to="426927728#5" type="veh_passenger" />