<routes xmlns:xsi="http://www.w3.org/2001/XMLSchema-instance" xsi:noNamespaceSchemaLocation="http://sumo.dlr.de/xsd/routes_file.xsd">
    <vType id="truck_truck" vClass="truck">
    </vType>
    <trip depart="0.00" departLane="best" from="37538131#3" id="truck0" to="-172745429#3" type="truck_truck" />
    <trip depart="0.59" departLane="best" from="-638729328#0" id="truck1" to="-53826080#0" type="truck_truck" />
    <trip depart="1.78" departLane="best" from="476994770" id="truck3" to="-27644487#2" type="truck_truck" />
    <trip depart="2.38" departLane="best" from="229480219#0" id="truck4" to="-185627527#0" type="truck_truck" />
    <trip depart="4.75" departLane="best" from="-431548666#1" id="truck8" to="369907195#2" type="truck_truck" />
    <trip depart="5.35" departLane="best" from="426696442" id="truck9" to="-131628108#0" type="truck_truck" />
    <trip depart="7.73" departLane="best" from="-283003800" id="truck13" to="-294108450#1" type="truck_truck" />
    <trip depart="8.91" departLane="best" from="426696421#4" id="truck15" to="424222641" type="truck_truck" />
    <trip depart="10.10" departLane="best" from="183853693#2" id="truck17" to="293597698#3" type="truck_truck" />
    <trip depart="12.48" departLane="best" from="-27639631#0" id="truck21" to="-60685694#2" type="truck_truck" />
    <trip depart="13.07" departLane="best" from="-33968289" id="truck22" to="133125089" type="truck_truck" />
    <trip depart="14.86" departLane="best" from="37916372#0" id="truck25" to="37909863#0" type="truck_truck" />
    <trip depart="15.45" departLane="best" from="-424630842" id="truck26" to="424217366#3" type="truck_truck" />
    <trip depart="17.23" departLane="best" from="27639627#0" id="truck29" to="39080244#4" type="truck_truck" />
    <trip depart="18.42" departLane="best" from="-438225728" id="truck31" to="-192583210#1" type="truck_truck" />
    <trip depart="21.99" departLane="best" from="-560269842#1" id="truck37" to="-79162696" type="truck_truck" />
    <trip depart="26.15" departLane="best" from="426505724#1" id="truck44" to="235497117#0" type="truck_truck" />
    <trip depart="26.74" departLane="best" from="-27030008#1" id="truck45" to="229480983#4" type="truck_truck" />
    <trip depart="27.93" departLane="best" from="72767342-AddedOnRampEdge" id="truck47" to="448209066" type="truck_truck" />
    <trip depart="28.53" departLane="best" from="-14521675#1" id="truck48" to="424210754#1" type="truck_truck" />
    <trip depart="29.72" departLane="best" from="-565483609" id="truck50" to="38738608" type="truck_truck" />
    <trip depart="30.31" departLane="best" from="-37909859#1" id="truck51" to="237455942#1" type="truck_truck" />
    <trip depart="30.90" departLane="best" from="231350482#3" id="truck52" to="628293209#0" type="truck_truck" />
    <trip depart="31.50" departLane="best" from="454570246" id="truck53" to="128511297#0" type="truck_truck" />
    <trip depart="32.69" departLane="best" from="519490880" id="truck55" to="454561009#1" type="truck_truck" />
    <trip depart="33.28" departLane="best" from="337865808#2" id="truck56" to="-39081862#0" type="truck_truck" />
    <trip depart="33.88" departLane="best" from="424419378#3" id="truck57" to="277478975" type="truck_truck" />
    <trip depart="35.06" departLane="best" from="-123103598#3" id="truck59" to="172744182#0" type="truck_truck" />
    <trip depart="36.25" departLane="best" from="454698074" id="truck61" to="430128620" type="truck_truck" />
    <trip depart="36.85" departLane="best" from="128676785" id="truck62" to="-246307536#0" type="truck_truck" />
    <trip depart="38.63" departLane="best" from="-27030123#3" id="truck65" to="426247930#0" type="truck_truck" />
    <trip depart="39.22" departLane="best" from="424630792" id="truck66" to="-39046009" type="truck_truck" />
    <trip depart="39.82" departLane="best" from="237455925#4" id="truck67" to="28807592#6" type="truck_truck" />
    <trip depart="40.41" departLane="best" from="-560269842#1" id="truck68" to="454576378" type="truck_truck" />
    <trip depart="41.01" departLane="best" from="229480983#3" id="truck69" to="-467061961" type="truck_truck" />
    <trip depart="41.60" departLane="best" from="27333547#0" id="truck70" to="424389513#1" type="truck_truck" />
    <trip depart="42.20" departLane="best" from="-430123093" id="truck71" to="171847101#0" type="truck_truck" />
    <trip depart="42.79" departLane="best" from="8579414#0" id="truck72" to="39014089#0" type="truck_truck" />
    <trip depart="43.38" departLane="best" from="230629147#1" id="truck73" to="27639632#0" type="truck_truck" />
    <trip depart="44.57" departLane="best" from="153916351" id="truck75" to="369907161#0" type="truck_truck" />
    <trip depart="45.17" departLane="best" from="-438470920#1" id="truck76" to="-514557409" type="truck_truck" />
    <trip depart="45.76" departLane="best" from="-27030143#2" id="truck77" to="38585129#1" type="truck_truck" />
    <trip depart="46.36" departLane="best" from="-438225727" id="truck78" to="504627721" type="truck_truck" />
    <trip depart="46.95" departLane="best" from="439628881" id="truck79" to="-27030031#4" type="truck_truck" />
    <trip depart="49.92" departLane="best" from="426696428#0" id="truck84" to="-430119076" type="truck_truck" />
    <trip depart="52.89" departLane="best" from="19797659#0" id="truck89" to="184013932#0" type="truck_truck" />
    <trip depart="53.49" departLane="best" from="439894868" id="truck90" to="-79770595" type="truck_truck" />
    <trip depart="54.08" departLane="best" from="-427400712#2" id="truck91" to="244821391#0" type="truck_truck" />
    <trip depart="55.86" departLane="best" from="231281375#0" id="truck94" to="448209709" type="truck_truck" />
    <trip depart="56.46" departLane="best" from="27639579#4" id="truck95" to="-237455925#0" type="truck_truck" />
    <trip depart="57.05" departLane="best" from="8579917" id="truck96" to="431548669" type="truck_truck" />
    <trip depart="57.65" departLane="best" from="71958447#4" id="truck97" to="556750747#8" type="truck_truck" />
    <trip depart="58.84" departLane="best" from="239019932#1" id="truck99" to="-472258016" type="truck_truck" />
    <trip depart="60.03" departLane="best" from="183853715#1" id="truck101" to="8148347" type="truck_truck" />
    <trip depart="61.21" departLane="best" from="231355575#10" id="truck103" to="235695427" type="truck_truck" />
    <trip depart="61.81" departLane="best" from="661786906#1" id="truck104" to="8579488#2" type="truck_truck" />
    <trip depart="64.19" departLane="best" from="27474561" id="truck108" to="425846511#0" type="truck_truck" />
    <trip depart="64.78" departLane="best" from="-248091975" id="truck109" to="359790126" type="truck_truck" />
    <trip depart="65.37" departLane="best" from="247519635#1" id="truck110" to="438471390#0" type="truck_truck" />
    <trip depart="67.16" departLane="best" from="312295510#2" id="truck113" to="39056441#2" type="truck_truck" />
    <trip depart="67.75" departLane="best" from="-448209065#0" id="truck114" to="-38570166#2" type="truck_truck" />
    <trip depart="68.35" departLane="best" from="471622252" id="truck115" to="-79159684#1" type="truck_truck" />
    <trip depart="70.13" departLane="best" from="265227053#13" id="truck118" to="576954816#2" type="truck_truck" />
    <trip depart="70.72" departLane="best" from="-430126368#1" id="truck119" to="423497710#0" type="truck_truck" />
    <trip depart="71.91" departLane="best" from="38631692#0" id="truck121" to="16257487#2" type="truck_truck" />
    <trip depart="72.51" departLane="best" from="131655875#0" id="truck122" to="425926581#1" type="truck_truck" />
    <trip depart="73.10" departLane="best" from="-27238983#2" id="truck123" to="245893027" type="truck_truck" />
    <trip depart="74.29" departLane="best" from="-27586532#1" id="truck125" to="-471659281" type="truck_truck" />
    <trip depart="74.88" departLane="best" from="-560269842#1" id="truck126" to="572095530#0" type="truck_truck" />
    <trip depart="76.07" departLane="best" from="172868750" id="truck128" to="-39120530" type="truck_truck" />
    <trip depart="76.67" departLane="best" from="428102023#1" id="truck129" to="401300455#3" type="truck_truck" />
    <trip depart="79.04" departLane="best" from="38508531" id="truck133" to="578707887#2" type="truck_truck" />
    <trip depart="81.42" departLane="best" from="39081849#0" id="truck137" to="-438470510#0" type="truck_truck" />
    <trip depart="83.20" departLane="best" from="430128047#1" id="truck140" to="-277478974#0" type="truck_truck" />
    <trip depart="84.99" departLane="best" from="373580561#0" id="truck143" to="128511287#3" type="truck_truck" />
    <trip depart="85.58" departLane="best" from="418365018#1" id="truck144" to="290026189#2" type="truck_truck" />
    <trip depart="86.17" departLane="best" from="230398376" id="truck145" to="-131655871" type="truck_truck" />
    <trip depart="86.77" departLane="best" from="-27611587" id="truck146" to="46892974#2" type="truck_truck" />
    <trip depart="87.96" departLane="best" from="428111149#1" id="truck148" to="359790121#10" type="truck_truck" />
    <trip depart="88.55" departLane="best" from="-39056475#3" id="truck149" to="-39014082#2" type="truck_truck" />
    <trip depart="89.15" departLane="best" from="129439669" id="truck150" to="490216501" type="truck_truck" />
    <trip depart="90.93" departLane="best" from="425926846#0" id="truck153" to="46927935#0" type="truck_truck" />
    <trip depart="91.52" departLane="best" from="202867531#0" id="truck154" to="37916557#2" type="truck_truck" />
    <trip depart="93.31" departLane="best" from="426927713#0" id="truck157" to="46892380" type="truck_truck" />
    <trip depart="93.90" departLane="best" from="-184745785#0" id="truck158" to="424586841#0" type="truck_truck" />
    <trip depart="94.49" departLane="best" from="14517187#0" id="truck159" to="565161446#0" type="truck_truck" />
    <trip depart="95.68" departLane="best" from="426927713#0" id="truck161" to="128519868" type="truck_truck" />
    <trip depart="96.28" departLane="best" from="425942463" id="truck162" to="-377396453" type="truck_truck" />
    <trip depart="97.47" departLane="best" from="-431552168" id="truck164" to="430126278" type="truck_truck" />
    <trip depart="98.06" departLane="best" from="231715370" id="truck165" to="165623489" type="truck_truck" />
    <trip depart="101.03" departLane="best" from="37909812#0" id="truck170" to="230784033#2" type="truck_truck" />
    <trip depart="103.41" departLane="best" from="672784703#5" id="truck174" to="128515118#1" type="truck_truck" />
    <trip depart="104.00" departLane="best" from="-377396455#1" id="truck175" to="237455940#1" type="truck_truck" />
    <trip depart="105.19" departLane="best" from="333520062#4" id="truck177" to="27639585#3" type="truck_truck" />
    <trip depart="105.79" departLane="best" from="184855988#4" id="truck178" to="34439046#0" type="truck_truck" />
    <trip depart="107.57" departLane="best" from="27238983#0" id="truck181" to="423987908#1" type="truck_truck" />
    <trip depart="108.16" departLane="best" from="418365026#1" id="truck182" to="39053414" type="truck_truck" />
    <trip depart="108.76" departLane="best" from="172433904#1" id="truck183" to="-27030027#3" type="truck_truck" />
    <trip depart="109.95" departLane="best" from="131655865#1" id="truck185" to="437180473#0" type="truck_truck" />
    <trip depart="111.73" departLane="best" from="19797658#3" id="truck188" to="154421037" type="truck_truck" />
    <trip depart="112.32" departLane="best" from="-39014080#1" id="truck189" to="233692914" type="truck_truck" />
    <trip depart="114.11" departLane="best" from="128511288#1" id="truck192" to="28788350#1" type="truck_truck" />
    <trip depart="114.70" departLane="best" from="-123103598#2" id="truck193" to="142906169#1" type="truck_truck" />
    <trip depart="115.30" departLane="best" from="230628518" id="truck194" to="358278701" type="truck_truck" />
    <trip depart="115.89" departLane="best" from="37916524#2" id="truck195" to="251628553" type="truck_truck" />
    <trip depart="116.48" departLane="best" from="230784541" id="truck196" to="-472258016" type="truck_truck" />
    <trip depart="118.27" departLane="best" from="-27660277" id="truck199" to="27639622#1" type="truck_truck" />
    <trip depart="118.86" departLane="best" from="369907216#0" id="truck200" to="183752945#0" type="truck_truck" />
    <trip depart="119.46" departLane="best" from="427243023#1" id="truck201" to="425925652" type="truck_truck" />
    <trip depart="120.05" departLane="best" from="38631699#5" id="truck202" to="-547305685#1" type="truck_truck" />
    <trip depart="120.64" departLane="best" from="-430119363" id="truck203" to="-172744182#1" type="truck_truck" />
    <trip depart="121.83" departLane="best" from="435973649#2" id="truck205" to="-27030123#0" type="truck_truck" />
    <trip depart="124.80" departLane="best" from="424211068" id="truck210" to="426511024" type="truck_truck" />
    <trip depart="125.40" departLane="best" from="-373580561#0" id="truck211" to="236765475#2" type="truck_truck" />
    <trip depart="127.18" departLane="best" from="-490216495#1" id="truck214" to="437181266#1" type="truck_truck" />
    <trip depart="127.78" departLane="best" from="231355583" id="truck215" to="427400738#1" type="truck_truck" />
    <trip depart="128.37" departLane="best" from="38585150" id="truck216" to="8547744#1" type="truck_truck" />
    <trip depart="128.96" departLane="best" from="318211695" id="truck217" to="620987193#0" type="truck_truck" />
    <trip depart="129.56" departLane="best" from="474015557" id="truck218" to="37916388#0" type="truck_truck" />
    <trip depart="130.15" departLane="best" from="39081857#0" id="truck219" to="27586535#4" type="truck_truck" />
    <trip depart="131.34" departLane="best" from="487911486#2" id="truck221" to="425457913#1" type="truck_truck" />
    <trip depart="132.53" departLane="best" from="-477587486#0" id="truck223" to="38631715#0" type="truck_truck" />
    <trip depart="133.12" departLane="best" from="424630792" id="truck224" to="27639662" type="truck_truck" />
    <trip depart="133.72" departLane="best" from="369907196#3" id="truck225" to="131655879" type="truck_truck" />
    <trip depart="134.31" departLane="best" from="-27639594" id="truck226" to="141294961#3" type="truck_truck" />
    <trip depart="134.91" departLane="best" from="-598422931" id="truck227" to="172297075#4" type="truck_truck" />
    <trip depart="136.10" departLane="best" from="-438470923" id="truck229" to="39082331#14" type="truck_truck" />
    <trip depart="136.69" departLane="best" from="39053434#0" id="truck230" to="-255818924#5" type="truck_truck" />
    <trip depart="137.88" departLane="best" from="212554510#1" id="truck232" to="-448209065#2" type="truck_truck" />
    <trip depart="139.07" departLane="best" from="280118522#3" id="truck234" to="39117733#1" type="truck_truck" />
    <trip depart="140.26" departLane="best" from="184006422#2" id="truck236" to="-130808660#1" type="truck_truck" />
    <trip depart="143.82" departLane="best" from="15260247#1" id="truck242" to="39077808" type="truck_truck" />
    <trip depart="144.42" departLane="best" from="199121003" id="truck243" to="-424630866#0" type="truck_truck" />
    <trip depart="145.01" departLane="best" from="236732296#0" id="truck244" to="-39014083" type="truck_truck" />
    <trip depart="145.61" departLane="best" from="366497294#1" id="truck245" to="-172868948" type="truck_truck" />
    <trip depart="146.20" departLane="best" from="192583210#5" id="truck246" to="329094557#1" type="truck_truck" />
    <trip depart="147.98" departLane="best" from="-238318428#1" id="truck249" to="228351158#0" type="truck_truck" />
    <trip depart="149.77" departLane="best" from="424211551#0" id="truck252" to="430129437#0" type="truck_truck" />
    <trip depart="150.36" departLane="best" from="-498875212" id="truck253" to="-27639611" type="truck_truck" />
    <trip depart="151.55" departLane="best" from="37916430#1" id="truck255" to="426696435#2" type="truck_truck" />
    <trip depart="152.14" departLane="best" from="37916463" id="truck256" to="425929169#2" type="truck_truck" />
    <trip depart="152.74" departLane="best" from="627182616#0" id="truck257" to="-431548664#0" type="truck_truck" />
    <trip depart="153.33" departLane="best" from="-172743779" id="truck258" to="-39081857#2" type="truck_truck" />
    <trip depart="153.93" departLane="best" from="-38841784#5" id="truck259" to="39051671#1" type="truck_truck" />
    <trip depart="155.71" departLane="best" from="-424211533" id="truck262" to="37909826#1" type="truck_truck" />
    <trip depart="156.30" departLane="best" from="424136014#0" id="truck263" to="-37916466" type="truck_truck" />
    <trip depart="157.49" departLane="best" from="-377396455#1" id="truck265" to="-172747396#1" type="truck_truck" />
    <trip depart="158.68" departLane="best" from="661786912" id="truck267" to="230629143" type="truck_truck" />
    <trip depart="159.27" departLane="best" from="39080241" id="truck268" to="-27238962#1" type="truck_truck" />
    <trip depart="159.87" departLane="best" from="39048451#1" id="truck269" to="38508523" type="truck_truck" />
    <trip depart="160.46" departLane="best" from="-35472704" id="truck270" to="426511888#2" type="truck_truck" />
    <trip depart="161.65" departLane="best" from="-38709146" id="truck272" to="8103462" type="truck_truck" />
    <trip depart="162.84" departLane="best" from="230615749#1" id="truck274" to="211455038" type="truck_truck" />
    <trip depart="164.03" departLane="best" from="435973649#0" id="truck276" to="430127940#1" type="truck_truck" />
    <trip depart="164.62" departLane="best" from="-369907196#8" id="truck277" to="661786914#2" type="truck_truck" />
    <trip depart="165.22" departLane="best" from="37253817" id="truck278" to="430128409" type="truck_truck" />
    <trip depart="167.00" departLane="best" from="-59515641#1" id="truck281" to="430114472#1" type="truck_truck" />
    <trip depart="168.19" departLane="best" from="230628539#0" id="truck283" to="424394652#0" type="truck_truck" />
    <trip depart="168.78" departLane="best" from="-587918116#1" id="truck284" to="438470923" type="truck_truck" />
    <trip depart="169.38" departLane="best" from="427400778#0" id="truck285" to="-27644479" type="truck_truck" />
    <trip depart="169.97" departLane="best" from="4615022#1" id="truck286" to="-75479791" type="truck_truck" />
    <trip depart="171.75" departLane="best" from="436325257" id="truck289" to="-427400670#0" type="truck_truck" />
    <trip depart="172.94" departLane="best" from="157188563#8" id="truck291" to="465984314" type="truck_truck" />
    <trip depart="175.32" departLane="best" from="241318602#3" id="truck295" to="425934934#0" type="truck_truck" />
    <trip depart="175.91" departLane="best" from="39048451#1" id="truck296" to="38841784#0" type="truck_truck" />
    <trip depart="176.51" departLane="best" from="244923471#1" id="truck297" to="427243062#4" type="truck_truck" />
    <trip depart="177.70" departLane="best" from="39048475#1" id="truck299" to="16653270#3" type="truck_truck" />
    <trip depart="178.29" departLane="best" from="278992351#2" id="truck300" to="255845157#0" type="truck_truck" />
    <trip depart="178.89" departLane="best" from="27030031#4" id="truck301" to="237003876#0" type="truck_truck" />
    <trip depart="180.08" departLane="best" from="39053410" id="truck303" to="131628104#3" type="truck_truck" />
    <trip depart="180.67" departLane="best" from="-491421502" id="truck304" to="-38585136#0" type="truck_truck" />
    <trip depart="181.26" departLane="best" from="-427400858" id="truck305" to="-38570166#0" type="truck_truck" />
    <trip depart="183.64" departLane="best" from="76791576#5" id="truck309" to="27644488#1" type="truck_truck" />
    <trip depart="184.83" departLane="best" from="-427400913" id="truck311" to="-56394532#0" type="truck_truck" />
    <trip depart="185.42" departLane="best" from="-426507060#2" id="truck312" to="-142906165" type="truck_truck" />
    <trip depart="186.02" departLane="best" from="27030106" id="truck313" to="131655877" type="truck_truck" />
    <trip depart="186.61" departLane="best" from="75329379" id="truck314" to="301151224" type="truck_truck" />
    <trip depart="188.40" departLane="best" from="450878338#1" id="truck317" to="339103686" type="truck_truck" />
    <trip depart="190.77" departLane="best" from="427243102#1" id="truck321" to="230784085#1" type="truck_truck" />
    <trip depart="191.37" departLane="best" from="-27587528#1" id="truck322" to="38570166#2" type="truck_truck" />
    <trip depart="192.56" departLane="best" from="27644477#0" id="truck324" to="165472953" type="truck_truck" />
    <trip depart="193.15" departLane="best" from="8579208#1" id="truck325" to="-38508521" type="truck_truck" />
    <trip depart="193.74" departLane="best" from="424586845" id="truck326" to="37909817" type="truck_truck" />
    <trip depart="194.93" departLane="best" from="231226535#0" id="truck328" to="448209065#0" type="truck_truck" />
    <trip depart="195.53" departLane="best" from="8578850#0" id="truck329" to="16651445#1" type="truck_truck" />
    <trip depart="196.72" departLane="best" from="410081053-AddedOnRampEdge" id="truck331" to="600788074" type="truck_truck" />
    <trip depart="198.50" departLane="best" from="-425926837" id="truck334" to="-27030143#3" type="truck_truck" />
    <trip depart="199.09" departLane="best" from="-128511288#1" id="truck335" to="244923473#2" type="truck_truck" />
    <trip depart="200.28" departLane="best" from="-438470924" id="truck337" to="405498518#0" type="truck_truck" />
    <trip depart="201.47" departLane="best" from="39046625#0" id="truck339" to="547177363#4" type="truck_truck" />
    <trip depart="202.06" departLane="best" from="426247930#1" id="truck340" to="384104721" type="truck_truck" />
    <trip depart="202.66" departLane="best" from="38508504#0" id="truck341" to="575155215" type="truck_truck" />
    <trip depart="204.44" departLane="best" from="427348456" id="truck344" to="-27030074#2" type="truck_truck" />
    <trip depart="205.04" departLane="best" from="-418365015" id="truck345" to="16765274#0" type="truck_truck" />
    <trip depart="206.22" departLane="best" from="121853925" id="truck347" to="-38738764#4" type="truck_truck" />
    <trip depart="206.82" departLane="best" from="39048410#0" id="truck348" to="39120532#1" type="truck_truck" />
    <trip depart="208.01" departLane="best" from="244936602" id="truck350" to="-27639585#5" type="truck_truck" />
    <trip depart="209.20" departLane="best" from="134362567#0" id="truck352" to="-8579406" type="truck_truck" />
    <trip depart="209.79" departLane="best" from="-278916129#3" id="truck353" to="661786920" type="truck_truck" />
    <trip depart="210.98" departLane="best" from="628293205" id="truck355" to="94522732" type="truck_truck" />
    <trip depart="211.57" departLane="best" from="38631696" id="truck356" to="130808660#0" type="truck_truck" />
    <trip depart="213.36" departLane="best" from="284347441#2" id="truck359" to="38630645" type="truck_truck" />
    <trip depart="213.95" departLane="best" from="244923473#3" id="truck360" to="-277478967#1" type="truck_truck" />
    <trip depart="214.54" departLane="best" from="16652867#1" id="truck361" to="183489030#1" type="truck_truck" />
    <trip depart="215.14" departLane="best" from="38630642#0" id="truck362" to="447117757#0" type="truck_truck" />
    <trip depart="215.73" departLane="best" from="142906168" id="truck363" to="39082331#11" type="truck_truck" />
    <trip depart="216.33" departLane="best" from="108358684" id="truck364" to="59515645#2" type="truck_truck" />
    <trip depart="218.11" departLane="best" from="134364076#1" id="truck367" to="71958447#1" type="truck_truck" />
    <trip depart="219.30" departLane="best" from="8547794#2" id="truck369" to="39048457#0" type="truck_truck" />
    <trip depart="219.89" departLane="best" from="27474566#0" id="truck370" to="231355574#1" type="truck_truck" />
    <trip depart="220.49" departLane="best" from="-427253378" id="truck371" to="19797659#3" type="truck_truck" />
    <trip depart="222.27" departLane="best" from="230629147#1" id="truck374" to="39117758#3" type="truck_truck" />
    <trip depart="222.87" departLane="best" from="-38738602#0" id="truck375" to="72767330" type="truck_truck" />
    <trip depart="223.46" departLane="best" from="337865808#1" id="truck376" to="-672784703#3" type="truck_truck" />
    <trip depart="224.05" departLane="best" from="-39082303#1" id="truck377" to="28807664#6" type="truck_truck" />
    <trip depart="225.24" departLane="best" from="8579140#7" id="truck379" to="51835047" type="truck_truck" />
    <trip depart="227.62" departLane="best" from="-626721430#0" id="truck383" to="431548666#1" type="truck_truck" />
    <trip depart="228.21" departLane="best" from="79162696" id="truck384" to="-75329379" type="truck_truck" />
    <trip depart="230.00" departLane="best" from="454749665#0" id="truck387" to="449612098#0" type="truck_truck" />
    <trip depart="230.59" departLane="best" from="-672784702#3" id="truck388" to="427018862#4" type="truck_truck" />
    <trip depart="231.78" departLane="best" from="251712234#1" id="truck390" to="430127809" type="truck_truck" />
    <trip depart="234.16" departLane="best" from="27238983#2" id="truck394" to="185627516" type="truck_truck" />
    <trip depart="234.75" departLane="best" from="27639585#5" id="truck395" to="278992352#2" type="truck_truck" />
    <trip depart="235.94" departLane="best" from="-427400671#4" id="truck397" to="39117749" type="truck_truck" />
    <trip depart="236.53" departLane="best" from="27668192#5" id="truck398" to="-622465138" type="truck_truck" />
    <trip depart="238.32" departLane="best" from="426927728#3" id="truck401" to="230395380#1" type="truck_truck" />
    <trip depart="238.91" departLane="best" from="38550804#1" id="truck402" to="430127810" type="truck_truck" />
    <trip depart="240.10" departLane="best" from="-211556987#5" id="truck404" to="27570521#4" type="truck_truck" />
    <trip depart="241.88" departLane="best" from="39082313#0" id="truck407" to="231350474#1" type="truck_truck" />
    <trip depart="243.07" departLane="best" from="154421023#0" id="truck409" to="39082314#2" type="truck_truck" />
    <trip depart="243.67" departLane="best" from="37916421#4" id="truck410" to="438470923" type="truck_truck" />
    <trip depart="244.26" departLane="best" from="184006418#0" id="truck411" to="171848999#0" type="truck_truck" />
    <trip depart="246.04" departLane="best" from="-27030098" id="truck414" to="38585129#2" type="truck_truck" />
    <trip depart="247.23" departLane="best" from="423976021#5" id="truck416" to="237455937#5" type="truck_truck" />
    <trip depart="248.42" departLane="best" from="450878336" id="truck418" to="241249687-AddedOnRampEdge" type="truck_truck" />
    <trip depart="249.01" departLane="best" from="39048502" id="truck419" to="498875212" type="truck_truck" />
    <trip depart="250.20" departLane="best" from="125450909#3" id="truck421" to="212554512#2" type="truck_truck" />
    <trip depart="250.80" departLane="best" from="-39056445#0" id="truck422" to="27667565" type="truck_truck" />
    <trip depart="251.39" departLane="best" from="27644520#1" id="truck423" to="427243056#3" type="truck_truck" />
    <trip depart="251.99" departLane="best" from="-424630814#2" id="truck424" to="-27639576#0" type="truck_truck" />
    <trip depart="253.17" departLane="best" from="-454683135" id="truck426" to="51835045#1" type="truck_truck" />
    <trip depart="256.15" departLane="best" from="-39082303#0" id="truck431" to="239019901#0" type="truck_truck" />
    <trip depart="257.34" departLane="best" from="37538131#0" id="truck433" to="236732296#0" type="truck_truck" />
    <trip depart="257.93" departLane="best" from="-490216500" id="truck434" to="436488788" type="truck_truck" />
    <trip depart="259.12" departLane="best" from="238318429#0" id="truck436" to="-649260345" type="truck_truck" />
    <trip depart="260.31" departLane="best" from="8579169#1" id="truck438" to="154421023#0" type="truck_truck" />
    <trip depart="261.50" departLane="best" from="-635705576" id="truck440" to="329613767" type="truck_truck" />
    <trip depart="262.09" departLane="best" from="39046115#1" id="truck441" to="425691401#0" type="truck_truck" />
    <trip depart="263.28" departLane="best" from="244936675#0" id="truck443" to="503239704#1" type="truck_truck" />
    <trip depart="263.87" departLane="best" from="-8579169#0" id="truck444" to="427348447#1" type="truck_truck" />
    <trip depart="265.66" departLane="best" from="38738774#2" id="truck447" to="424210754#3" type="truck_truck" />
    <trip depart="266.84" departLane="best" from="369907197#5" id="truck449" to="498875212" type="truck_truck" />
    <trip depart="267.44" departLane="best" from="37916351#0" id="truck450" to="16767770#1" type="truck_truck" />
    <trip depart="269.22" departLane="best" from="127683138#0" id="truck453" to="425694028#1" type="truck_truck" />
    <trip depart="270.41" departLane="best" from="27333547#1" id="truck455" to="72614032#1" type="truck_truck" />
    <trip depart="271.00" departLane="best" from="27030031#3" id="truck456" to="51835049#2" type="truck_truck" />
    <trip depart="272.19" departLane="best" from="427253374#2" id="truck458" to="265227053#8" type="truck_truck" />
    <trip depart="272.79" departLane="best" from="426696419#1" id="truck459" to="425691431#2" type="truck_truck" />
    <trip depart="273.38" departLane="best" from="154421028" id="truck460" to="-37916524#3" type="truck_truck" />
    <trip depart="273.98" departLane="best" from="677774759#0" id="truck461" to="-39053421#0" type="truck_truck" />
    <trip depart="274.57" departLane="best" from="679196742#3" id="truck462" to="448209065#0" type="truck_truck" />