<routes xmlns:xsi="http://www.w3.org/2001/XMLSchema-instance" xsi:noNamespaceSchemaLocation="http://sumo.dlr.de/xsd/routes_file.xsd">
    <vType id="moto_motorcycle" vClass="motorcycle" />
    <vehicle depart="0.68" departLane="best" id="moto1" type="moto_motorcycle">
        <route edges="451910413#0 451910413#1 451910413#2 451910413#3 221585908#3 221585908#4 221585908#5" />
    </vehicle>
    <vehicle depart="1.36" departLane="best" id="moto2" type="moto_motorcycle">
        <route edges="-232270198#0 -587355743 -239626765 -5676705 239626764#0 239626764#1" />
    </vehicle>
    <vehicle depart="6.82" departLane="best" id="moto10" type="moto_motorcycle">
        <route edges="40416344#0 40416344#1 5680646 46137501#1 455014440#0 455014440#1 221723367 420880635 -5682006 107391104#23 107391104#24" />
    </vehicle>
    <vehicle depart="8.87" departLane="best" id="moto13" type="moto_motorcycle">
        <route edges="46179211#3 598435630 5677903#0 5677903#1 68325081 420571181 420572573 221696387 46788735 495315405#0 495315405#1 495315400" />
    </vehicle>
    <vehicle depart="10.23" departLane="best" id="moto15" type="moto_motorcycle">
        <route edges="5678215#1 -5678101#2 -5678101#1 -5678101#0 -221725602#3 -221725602#1 -221725599#1 -221725599#0 -219964442#1 5679548#1 221725601#0" />
    </vehicle>
    <vehicle depart="10.91" departLane="best" id="moto16" type="moto_motorcycle">
        <route edges="5679887#2 5679887#3 -46818904#19 -46818904#18 5678442#28 5678442#29 5678442#31 5678442#32 227064529#0 5679826" />
    </vehicle>
    <vehicle depart="13.64" departLane="best" id="moto20" type="moto_motorcycle">
        <route edges="221586638#5 221586638#6 221586638#7 221586638#8 221586638#9 475559459#3 475559459#4 5676268 276050436" />
    </vehicle>
    <vehicle depart="21.15" departLane="best" id="moto31" type="moto_motorcycle">
        <route edges="-497257603#9 -497257603#8 221585914#26 221585914#27 221585914#28 221585914#29 587355768 221585907#0 221585907#1 221585907#2 221585907#3 -221753935 -221753949#1 -221753949#0 227064529#0 227064529#1 497257602 590201148 500452656#0 46818904#15" />
    </vehicle>
    <vehicle depart="22.51" departLane="best" id="moto33" type="moto_motorcycle">
        <route edges="43242499#4 451380987#3 451380987#4 227074808 227074807#0 227074807#1 227074807#2 420346484#0 420346484#1 420346484#2 420346480#0 420346480#1 420346480#2" />
    </vehicle>
    <vehicle depart="26.60" departLane="best" id="moto39" type="moto_motorcycle">
        <route edges="5682095#3 37447362#0 68523758 5677899#1 5677899#2 68523776-AddedOnRampEdge 68523776 97010378#0 452286946#1 -452286949#1 -497382067#1 -497382067#0 -451915594#1 -451915594#0 222258277 -451915592 -451915590 -496982424 -451915588 -222251431 -420880043 46865766 226998579 46865767#0 222266013 620132897 420883003 221759331#1 421151334#1 420880634 420880630" />
    </vehicle>
    <vehicle depart="30.01" departLane="best" id="moto44" type="moto_motorcycle">
        <route edges="530569001#5 530568994 -432554453#2 -432554453#1 -432554453#0 221725601#0 221725601#1 221725601#2 221725601#3 -227074765#3 -227074765#2 -227074765#1 -227074765#0 -68523760#2 -68523760#1 -68523760#0 -471943034#4 -471943034#3 -471943034#2 276083328 276083330#0 276083330#1" />
    </vehicle>
    <vehicle depart="31.38" departLane="best" id="moto46" type="moto_motorcycle">
        <route edges="5681089 -232270200#1 -232270200#0 -587355743 -239626768 -232270204 -420886409 -420886410#0 -222247847#2 -222247847#1 -222247847#0 37523532#0 37523532#1 68523771 68523772 68523779#1" />
    </vehicle>
    <vehicle depart="34.11" departLane="best" id="moto50" type="moto_motorcycle">
        <route edges="107391104#21 107391104#22 5682006 288862240#0 288862240#1 288862240#2 288862240#3 288862240#4 288862240#5 288862240#6 288862240#7 288862240#8 -46818468#5 -46818468#4 -46818468#3 497253780#7 497253780#8 682402389 682402388 497253779 682402640 5679437#2" />
    </vehicle>
    <vehicle depart="34.79" departLane="best" id="moto51" type="moto_motorcycle">
        <route edges="154513057 -239626764#0 5676705 239626765 -239626768 -232270204 25564006#0 25564006#1 25564006#2 222248831#0 222248831#1 222248831#2 46819926#0 110155729 46818451#1-AddedOnRampEdge 46818451#1 46121872" />
    </vehicle>
    <vehicle depart="37.52" departLane="best" id="moto55" type="moto_motorcycle">
        <route edges="46863851#0 46863855 46863840#0 46863840#1" />
    </vehicle>
    <vehicle depart="38.88" departLane="best" id="moto57" type="moto_motorcycle">
        <route edges="420875709#1 227074779#0 227074779#1 495491356#1 495491356#2 221696386#8 221696386#9 221696386#10 221696386#11 221696386#12 221696386#13 221696386#14 221696386#15 -68325083#2 -68325083#1 -68325083#0 -227074775#2 -227074775#1 -227074775#0 -5705730 5679460#0 39974314" />
    </vehicle>
    <vehicle depart="41.61" departLane="best" id="moto61" type="moto_motorcycle">
        <route edges="46121844#1 46121844#2 46121844#3 37575728#0 37575728#1 37575728#2 221694583#0 221694583#1 440633365 440633365-AddedOffRampEdge 455211317#0 455211317#1 455211317#2 221694584 221604538 5679842 440633375 421121608 -420567578 -420567577 -420567582 -23334074#2 -23334074#1 -23334074#0 -639805149 -420569583 -421120403 -46121849 420572568 5682051 511896312 420572567 420572564 46121848#0 46121848#1 46121848#2 46121848#4" />
    </vehicle>
    <vehicle depart="44.34" departLane="best" id="moto65" type="moto_motorcycle">
        <route edges="227074794#2 5678784#22 5678784#23 5678784#24 5678784#25 5678784#26 5678784#27 440606690 -227064517 39015290#0 39015290#1 39015290#2 278135785#0 278135785#1 46819907 5680220#1 440633442 451934311 486010416 557041245 440633414 46819926#0 545291578#1 545291578#1-AddedOffRampEdge 25563998 46818452#1-AddedOnRampEdge" />
    </vehicle>
    <vehicle depart="45.70" departLane="best" id="moto67" type="moto_motorcycle">
        <route edges="321542908 682886111#0 459397202#1 68523760#2 5676692 227074763 349369490 440633426 227074767#0 227074767#1 227074767#2 221777109#7 221777109#8 221777109#9 5679790#2 5678442#17 5678442#18 5681383#8" />
    </vehicle>
    <vehicle depart="48.43" departLane="best" id="moto71" type="moto_motorcycle">
        <route edges="221759318#0 5678784#24 5678784#25 5678784#26 5678784#27 440606690 -227064517 39015290#0 39015290#1 39015290#2 278135785#0 278135785#1 46819907 5680220#1 440633442 451934311 486010416 557041245 440633414 46819926#0 110155729 46818451#1-AddedOnRampEdge 46818451#1" />
    </vehicle>
    <vehicle depart="49.80" departLane="best" id="moto73" type="moto_motorcycle">
        <route edges="5678101#6 221446578#2 219964428#10 219964428#11 219964428#12 219964428#13 219964428#14 432552968 -227074781#6 -227074781#5 5680742#3 489437291 489437292#0" />
    </vehicle>
    <vehicle depart="51.16" departLane="best" id="moto75" type="moto_motorcycle">
        <route edges="5677949#9 5677949#10 5677949#11 5677949#12 5677949#13 5677949#14 5677949#15 5677949#16 5677949#18 222246539#1 552015559#0 552015559#1 -206610786#0 -682402640 -497253779 -682402388 41246540" />
    </vehicle>
    <vehicle depart="51.84" departLane="best" id="moto76" type="moto_motorcycle">
        <route edges="608794060#0 46863844#19 46863844#20 46863844#21 46863844#22 5678366#1 5678366#2 5678366#3 5678366#4 5678366#5 5678366#6" />
    </vehicle>
    <vehicle depart="62.08" departLane="best" id="moto91" type="moto_motorcycle">
        <route edges="-38341527#0 515885152#3 515885152#4 515885152#5 618977199#0 618977199#1 421116794 420319835#0 420319835#1 315569175#0 542169856#1 542169856#2 542169856#3 542169856#4 542169856#5 542169856#6 483704094#11 483704094#12 475559459#6 221759321#2" />
    </vehicle>
    <vehicle depart="63.44" departLane="best" id="moto93" type="moto_motorcycle">
        <route edges="46786486 5681577#3 420304912#0 420304912#1 497400544 -5678115#3 -5678115#2 -5678115#1 -5678115#0 -636728275 -5678101#16 -5678101#15 -5678101#14 -5678101#13 -5678101#12 -5678101#11 -5678101#10 -5678101#9 -5678101#8 5679171#3" />
    </vehicle>
    <vehicle depart="66.85" departLane="best" id="moto98" type="moto_motorcycle">
        <route edges="5677585#4 5677949#2 5677949#3 -654744274#3 -654744274#2 -654744274#1 -654744274#0 -654744279 46817493#6 -5674982 -222258273#1 -222258273#0 5675523" />
    </vehicle>
    <vehicle depart="67.53" departLane="best" id="moto99" type="moto_motorcycle">
        <route edges="460584836#1 460584837#1 460584837#2 460584837#3 460584837#4 460584837#5 460584837#6 460584837#7 -661684796 5674854" />
    </vehicle>
    <vehicle depart="72.99" departLane="best" id="moto107" type="moto_motorcycle">
        <route edges="5681892 5675255 221696378#1 315569175#1 315569175#2 450610492#24 450610492#25 450610492#26 450610492#27 221688252 5677037#0 5677037#1 5677037#2 5680992#4 5679708#19" />
    </vehicle>
    <vehicle depart="74.35" departLane="best" id="moto109" type="moto_motorcycle">
        <route edges="496984337 420883012 420883010 5675664#0 5675664#1 5675664#2 -222246538#1 -222246538#0 -288862241#2" />
    </vehicle>
    <vehicle depart="75.04" departLane="best" id="moto110" type="moto_motorcycle">
        <route edges="311764602 311764602-AddedOffRampEdge 591821087 278135787 280122809#0 280122809#1 280122809#2 280122809#3 227064517 37575728#0 37575728#1 37575728#2 221694585#0 221694585#1 525646871#0 525646871#1" />
    </vehicle>
    <vehicle depart="76.40" departLane="best" id="moto112" type="moto_motorcycle">
        <route edges="227074799#1 227074799#2 227074799#3 227074799#4 347014806#0 347014806#1 347014806#2 347014805#0 347014805#1 347014805#2 347014805#3 347014805#4 347014805#5 347014805#6 5678366#3" />
    </vehicle>
    <vehicle depart="77.08" departLane="best" id="moto113" type="moto_motorcycle">
        <route edges="5676800 347014805#0 347014805#1 347014805#2 347014805#3 347014805#4 347014805#5 347014805#6 347014804#0 46865768#2 641915866#3" />
    </vehicle>
    <vehicle depart="78.45" departLane="best" id="moto115" type="moto_motorcycle">
        <route edges="-221585916#7 -221585916#6 497257603#10 497257603#11 497257603#12 321542908 682886111#0 227074787#0 227074787#2 682886115#0 682886115#1 227074786#0 227074786#2 227074786#3 -5678262#11 221725598#5" />
    </vehicle>
    <vehicle depart="97.55" departLane="best" id="moto143" type="moto_motorcycle">
        <route edges="496995106 5678784#1 5680853#1 5680853#2 5680853#3 46863844#3 46863844#4 46863844#5 46863844#6 46863844#7" />
    </vehicle>
    <vehicle depart="98.91" departLane="best" id="moto145" type="moto_motorcycle">
        <route edges="5678147#2 5678147#3 5678147#5 5678147#6 206610786#4 206610786#5 206610786#6 206610786#7 206610786#10 206610786#13 206610786#14 221696386#13 221696386#14 221696386#15 421123037 587355763 587355761#0" />
    </vehicle>
    <vehicle depart="99.59" departLane="best" id="moto146" type="moto_motorcycle">
        <route edges="420346478#0 5679762#6 5679762#7 587355787#1 587355787#2 587355787#3 524340771#0 5676803#1 420584903#0" />
    </vehicle>
    <vehicle depart="100.28" departLane="best" id="moto147" type="moto_motorcycle">
        <route edges="488941121#8 221696377#5 535252372#3 -227064556#0 -420875713#1 -420875713#0 -315569176#0 221759333#0 221759333#1 497254142 542169858 420875685 420875672 420875656#0 420875656#1 420875678 5675664#0 5675664#1 5675664#2 5675664#3 5675664#4 288862240#3" />
    </vehicle>
    <vehicle depart="100.96" departLane="best" id="moto148" type="moto_motorcycle">
        <route edges="46121850#0 46121850#1 227074768 227074769#0 641915866#2 641915866#3 641915866#4 641915866#5 641915866#6 641915866#7 641915866#8 641915866#9 641915866#10 227064535#0 227064535#1 227064535#2 227064535#3 227064535#5 227064535#6 227064535#7" />
    </vehicle>
    <vehicle depart="101.64" departLane="best" id="moto149" type="moto_motorcycle">
        <route edges="-497257600 5677037#22 5677037#23 40174801 497257601 497257603#0 497257603#1 497257603#2 497257603#3 497257603#4 497257603#5 221585914#26 5681884 221585916#4 221585916#5 -497257603#9 -497257603#8" />
    </vehicle>
    <vehicle depart="102.32" departLane="best" id="moto150" type="moto_motorcycle">
        <route edges="221696377#4 221696377#5 535252372#3 -227064556#0 -420875713#1 -420875713#0 -315569176#0 221759333#0 221759333#1 497254142 542169858 420875685 421149636#0 421149636#1 421118180 420584209 420584206 420584207 23334065#3 641437649 451915592 5677511 525679230#0 525679230#1" />
    </vehicle>
    <vehicle depart="105.05" departLane="best" id="moto154" type="moto_motorcycle">
        <route edges="-239626769#2 -239626769#1 -239626769#0 239626765 -239626768 5680417 239626767#1" />
    </vehicle>
    <vehicle depart="106.42" departLane="best" id="moto156" type="moto_motorcycle">
        <route edges="46838317#1 496995106 5678784#1 5678784#2 5678784#3 5679697#1 353256024" />
    </vehicle>
    <vehicle depart="115.28" departLane="best" id="moto169" type="moto_motorcycle">
        <route edges="221586638#10 450610492#21 450610492#22 450610492#23 315569175#3 315569175#4 315569175#5 315569175#6 420315111#0 420315111#1 421084097 221585906#3 221585906#4 221585906#5 221585906#6 5681331 221585914#0" />
    </vehicle>
    <vehicle depart="115.97" departLane="best" id="moto170" type="moto_motorcycle">
        <route edges="227002831#2 672080280 221602115#0 46838302#1" />
    </vehicle>
    <vehicle depart="116.65" departLane="best" id="moto171" type="moto_motorcycle">
        <route edges="-221688255#1 -221688255#0 497256109 221696378#0 221696378#1 420319834#0 420319834#1 420319834#2 420319831#1 421116787#0 421116787#1 421116787#2 421116787#3 421116785 420319836#0 420319836#1 420319836#2 420319836#3 680852624 221759333#0 221759333#1 497254142" />
    </vehicle>
    <vehicle depart="119.38" departLane="best" id="moto175" type="moto_motorcycle">
        <route edges="40416338#1 40416343 40416346#1 -23334088 -420346447#2 -420346447#1 -420346447#0 -25198746#3 -25198746#2 -25198746#1 -25198746#0 -5676474#1 -5676474#0 46863844#6 46863844#7 46863844#8 46863844#9 46863844#10 46863844#11 46863844#12 5679758#0 5679758#1 5679758#2 5679758#3 5679758#4 5679758#5 227064534#1 227064534#2 227064534#4 5680996" />
    </vehicle>
    <vehicle depart="120.06" departLane="best" id="moto176" type="moto_motorcycle">
        <route edges="-5681578 5681787#1 5680167#8 5680167#9 5680167#10 5680167#11 5680736" />
    </vehicle>
    <vehicle depart="120.74" departLane="best" id="moto177" type="moto_motorcycle">
        <route edges="5676803#3 5681544#0 5681544#1 5681544#2 5681544#3 452286949#1 97010425#0" />
    </vehicle>
    <vehicle depart="134.38" departLane="best" id="moto197" type="moto_motorcycle">
        <route edges="227064523#4 227064523#5 227064523#6 227064522#0 227064522#1 227064522#2 227064522#3 183916221#3 183916221#4 183916221#5 440633404#7 227064534#0 227064534#1 227064534#2 227064534#4 227064534#5" />
    </vehicle>
    <vehicle depart="144.62" departLane="best" id="moto212" type="moto_motorcycle">
        <route edges="5677818#4 206610786#17 206610786#18 5676994#2 5676994#3 5676994#4 5676994#5 5676994#6 5676994#7 5676994#8 5676994#9 46865765#0" />
    </vehicle>
    <vehicle depart="145.98" departLane="best" id="moto214" type="moto_motorcycle">
        <route edges="5678574 471943034#2 471943034#3 471943034#4 68523760#0 68523760#1 68523760#2 227074765#0 227074765#1 227074765#2 227074765#3 -221725601#3 -221725601#2 -221725601#1 -221725601#0 432554453#0 432554453#1 432554453#2 432554453#3 432554453#4 432554453#8 432554453#9 461075409#0" />
    </vehicle>
    <vehicle depart="152.12" departLane="best" id="moto223" type="moto_motorcycle">
        <route edges="5675992 276145111 276145117#0 276145117#1 471943034#0 471943034#1 471943034#2 471943034#3 471943034#4 68523760#0 68523760#1 68523760#2 227074765#0 227074765#1 227074765#2 227074765#3 -221725601#3 -221725601#2 -221725601#1 -221725601#0 432554453#0 5706243 276024637#14 221725598#8" />
    </vehicle>
    <vehicle depart="158.26" departLane="best" id="moto232" type="moto_motorcycle">
        <route edges="46788758 324751028 222246978 -222248833 -420572574 516664556#0 516664556#1 440633375 421121608 -420567578 -420567577 -420567582 -23334074#2 -23334074#1 -23334074#0 -639805149 -420569583 -421120403 -46121849 420572568 5682051 511896312 420572567 420572564 46121848#0 46121848#1 46121848#2 46835348" />
    </vehicle>
    <vehicle depart="159.62" departLane="best" id="moto234" type="moto_motorcycle">
        <route edges="43242499#2 43242499#3 123001151#3 -494221659#1 -494221659#0 524340776#7" />
    </vehicle>
    <vehicle depart="163.03" departLane="best" id="moto239" type="moto_motorcycle">
        <route edges="5678442#18 5678442#19 51980526#1 51980526#2 51980526#3 51980526#4 5676994#8 5676994#9 5676994#10 5676994#11 5676994#12 5676994#13 5676994#14 5676994#15 5676994#16 5676994#17 5676994#18 221696381#0 221696381#1 221696381#2 497256110#0 497256110#1 221688255#0 221688255#1 221688254 -587067529#1 -587067529#0" />
    </vehicle>
    <vehicle depart="167.13" departLane="best" id="moto245" type="moto_motorcycle">
        <route edges="-5681578 5681787#1 5680167#8 46835367#2 46835367#3 46835367#4 -46121844#0 -5678318 46121868 221759319 221759330#0 221759330#1 221759330#2 420567582 420567577 420567578" />
    </vehicle>
    <vehicle depart="168.49" departLane="best" id="moto247" type="moto_motorcycle">
        <route edges="-222254955 40416344#0 40416344#1 5680646 46137501#1 455014440#0 455014440#1 221723367 420880635 288862240#0 288862240#1 288862240#2 288862240#3 288862240#4 288862240#5 288862240#6 -464137214#5 107391104#16 654744274#6" />
    </vehicle>
    <vehicle depart="171.90" departLane="best" id="moto252" type="moto_motorcycle">
        <route edges="-421149636#0 -421149633 -421149635 -227064552 -654744274#7 -654744274#6" />
    </vehicle>
    <vehicle depart="175.31" departLane="best" id="moto257" type="moto_motorcycle">
        <route edges="38341527#2 354926643 276050435#0 276050435#1 276050435#2 276050435#3 515885152#2 515885152#3 535252372#2 535252372#3 227064556#1 227064556#2" />
    </vehicle>
    <vehicle depart="176.68" departLane="best" id="moto259" type="moto_motorcycle">
        <route edges="-420882994 -222254952#0 -587355786 -524340771#7 5681248#0" />
    </vehicle>
    <vehicle depart="179.41" departLane="best" id="moto263" type="moto_motorcycle">
        <route edges="440633404#7 227064534#0 5679758#6 46835336#3 46835336#4 46835336#5 46835336#6 46835336#7 46835336#8 46835336#9 183103118#0 183103118#1" />
    </vehicle>
    <vehicle depart="180.09" departLane="best" id="moto264" type="moto_motorcycle">
        <route edges="222254955 420880633 221759331#1 421151334#1 420880044 420880042#0" />
    </vehicle>
    <vehicle depart="180.77" departLane="best" id="moto265" type="moto_motorcycle">
        <route edges="-5680631#6 5680955#1 46863691#4 46863691#5 46863691#6 46137500 473475839 527223926 123001160 420883006 221759332 500269691 420882998 420883008#0 420883008#1 308331245#0 308331245#1 420584903#0 464551539#1 524340771#0 524340771#1 524340771#2" />
    </vehicle>
    <vehicle depart="183.50" departLane="best" id="moto269" type="moto_motorcycle">
        <route edges="46835402#1 46835336#4 46835336#5 46835336#6 46835336#7 46835336#8 46835336#9 46835336#10 46835336#11 39015287 5680167#16 -5679472" />
    </vehicle>
    <vehicle depart="186.91" departLane="best" id="moto274" type="moto_motorcycle">
        <route edges="300084882 587355787#3 524340771#0 524340771#1 524340771#2 524340771#3 524340771#4 524340771#6 524340771#7 587355786 222254952#0 145079213#1 145079213#2 145079213#3 145079213#4 227074790#0" />
    </vehicle>
    <vehicle depart="188.27" departLane="best" id="moto276" type="moto_motorcycle">
        <route edges="37394899#1 37394899#2 -46818905#6 -46818905#5 -46818905#4 -46818905#3 -46818905#2 -46818905#0 -5681395#1 46817493#12 46817493#13 46817493#14 46817493#15 46817493#16 -222248832#3 -222248832#2 -222248832#1 -222248832#0 420886412 420886410#1 232270204 239626768 -239626765 -239626767#1 -154513056" />
    </vehicle>
    <vehicle depart="188.96" departLane="best" id="moto277" type="moto_motorcycle">
        <route edges="227074781#15 227074781#16 227074781#17 227074781#18 227074781#19 221585918#8 5681577#0 5681577#1 5681577#2 5681577#3 5681577#4 5681577#5 221585909#0 23334061#3" />
    </vehicle>
    <vehicle depart="191.00" departLane="best" id="moto280" type="moto_motorcycle">
        <route edges="420875707#1 420875709#0 420875709#1 222246543#2 222246543#3 222246543#4 420626018 107391104#0 107391104#1 107391104#3 107391104#4 107391104#5 107391104#7 107391104#8 107391104#9 107391104#11 107391104#12 107391104#13 107391104#14 107391104#15 107391104#16 654744274#6 654744274#7 -148285572#4 654744285#6" />
    </vehicle>
    <vehicle depart="193.73" departLane="best" id="moto284" type="moto_motorcycle">
        <route edges="-420880051#1 -420880049#0 -46121853#2 -46121853#1 -46121853#0 619552358 5681199#0 -46863691#5 -46863691#4 497149598#0 497149598#1 -221603657 -420567575 37396284 455014438 420572575 46863691#0" />
    </vehicle>
    <vehicle depart="200.55" departLane="best" id="moto294" type="moto_motorcycle">
        <route edges="-46121853#0 139919720#0 139919720#1 420880046#0 420880046#1 420880045 473475839 527223926 -222279148 420880044 420880042#0 420880042#1 420880041 420880039 451915588 625647904#0 5680549 -496982424" />
    </vehicle>
    <vehicle depart="211.47" departLane="best" id="moto310" type="moto_motorcycle">
        <route edges="-46835364 46835336#17 46835363#1 5680167#11 5680167#12 221759318#3 5679567 5680024#4" />
    </vehicle>
    <vehicle depart="212.83" departLane="best" id="moto312" type="moto_motorcycle">
        <route edges="5681491#2 641437652#2 641437652#3 185086369 442074815 420875688 420875687 204843025#0 204843025#1 542169859 420875693#1 420875693#2 -420875711 23334091#0 23334091#1 23334091#2 23334091#3 587067526#0 587067526#1 5676884#0 5676884#1 -222246544#0 -432552970#1 -432552970#0" />
    </vehicle>
    <vehicle depart="214.88" departLane="best" id="moto315" type="moto_motorcycle">
        <route edges="489437292#10 489437292#11 276146427 276146428 219964428#4 219964428#5 219964428#6 219964428#7 219964428#8 219964428#9 219964428#10 219964428#11 219964428#12 219964428#13 219964428#14 219964428#15 34287042#13 5678101#1" />
    </vehicle>
    <vehicle depart="215.56" departLane="best" id="moto316" type="moto_motorcycle">
        <route edges="-639763613#0 -239626769#2 -239626769#1 -239626769#0 239626765 -239626768 -232270204 25564006#0 25564006#1 25564006#2 222248831#0 222248831#1 222248831#2 25564048#1 46137554#0 46137554#1 46137557 455201237#0 5681579#1 5681263#1 37977793" />
    </vehicle>
    <vehicle depart="219.65" departLane="best" id="moto322" type="moto_motorcycle">
        <route edges="488941121#7 488941121#8 221696377#5 535252372#3" />
    </vehicle>
    <vehicle depart="222.38" departLane="best" id="moto326" type="moto_motorcycle">
        <route edges="-239626766 5676705 239626765 -239626768 -232270204 -420886409 -420886410#0 420886411 222248832#1 222248832#2 46818462 68523753 46818457-AddedOnRampEdge 46818457 420571185 221605484#1 222246983#0 222246983#1 222246981#0 222246981#1 421755067#0 421755067#1 421755066 221723366 139919720#0 139919720#1 420880046#0 420880046#1 46137501#1 -46788753#3 -46121853#2" />
    </vehicle>
    <vehicle depart="224.43" departLane="best" id="moto329" type="moto_motorcycle">
        <route edges="-625647904#2 -625647904#0 -451915588 -222251431 -420880043 46865766 226998579 46865767#0 420882998 420883008#0 420883008#1 308331245#0 308331245#1 420584903#0 420584903#1 420346452 420346478#0 420346478#1 524340776#4" />
    </vehicle>
    <vehicle depart="227.16" departLane="best" id="moto333" type="moto_motorcycle">
        <route edges="440606690 -420570150 -46121844#2 -46121844#1 -46121844#0 -5678318 46121868 221759319 221759330#0 227074794#2" />
    </vehicle>
    <vehicle depart="227.84" departLane="best" id="moto334" type="moto_motorcycle">
        <route edges="658936639#0" />
    </vehicle>
    <vehicle depart="232.61" departLane="best" id="moto341" type="moto_motorcycle">
        <route edges="-409285510#1 -68523765#6 -68523765#5 -68523765#4 5681544#0 5681544#1 5681544#2 5681544#3 5682095#1 5682095#2" />
    </vehicle>
    <vehicle depart="236.71" departLane="best" id="moto347" type="moto_motorcycle">
        <route edges="460584837#7 -661684796 46817493#2 46817493#3 46817493#4 46817493#5 46817493#6 46817493#7 46817493#8 46817493#9 46817493#10 46817493#11 5681395#1" />
    </vehicle>
    <vehicle depart="238.07" departLane="best" id="moto349" type="moto_motorcycle">
        <route edges="5677949#10 5677949#11 5677949#12 5677949#13 5677949#14 5677949#15 5677949#16 5677949#18 222246539#1 552015559#0 552015559#1 -206610786#0 -682402640 -497253779 -682402388 -682402389 -497253780#8 -497253780#7 -497253780#6 -497253780#5 -497253780#4 654744274#2 654744274#3 654744274#4 654744274#5 107391104#17 107391104#18 107391104#19 107391104#20 107391104#21 107391104#22 5682006 276202769 276202770 334341973#0" />
    </vehicle>
    <vehicle depart="238.75" departLane="best" id="moto350" type="moto_motorcycle">
        <route edges="483704094#11 483704094#12 483704094#13 483704094#14 479748557#7 479748557#8 479748557#9 479748557#11 479748557#12 479748557#13 222246286#5" />
    </vehicle>
    <vehicle depart="239.43" departLane="best" id="moto351" type="moto_motorcycle">
        <route edges="-451413253#1 -451413253#0 -111781747#7 -111781747#6 -111781747#5 -111781747#4 451380987#4 420346490#1 420346490#2 420346490#3 491160987 420346485 446800952#0 446800952#1 420584902#0 420584902#1 5675271#2 -524340771#2 -524340771#1" />
    </vehicle>
    <vehicle depart="241.48" departLane="best" id="moto354" type="moto_motorcycle">
        <route edges="5677167#0 5677167#1 460569807#0 460569807#1 460569807#2 460569807#3 460569807#4 420346495 680830803 420346486#0 420346486#1 420346488#0" />
    </vehicle>
    <vehicle depart="245.57" departLane="best" id="moto360" type="moto_motorcycle">
        <route edges="221585908#1 221585908#2 451910413#4 -46865764#8 -46865764#7 -46865764#6 -46865764#5 -46865764#4 -46865764#3 -46865764#2 -46865764#0 420304895 420304902#1 46786492 46786493 497256596 46865764#0 46865764#2 46865764#3" />
    </vehicle>
    <vehicle depart="246.94" departLane="best" id="moto362" type="moto_motorcycle">
        <route edges="-432552974 5679708#12 5679708#13 5679708#14 5679708#15 5679708#16 5679708#17 5679708#18 5679708#19 227064551#0 221753947 5681678#0 5681678#1 5681678#2 5681678#3 315569175#5 315569175#6 420315113#0 420315113#1 420319832#9" />
    </vehicle>
    <vehicle depart="248.99" departLane="best" id="moto365" type="moto_motorcycle">
        <route edges="5677818#4 -206610786#16 -206610786#15 221696386#13 221696386#14 221696386#15 -68325083#2 -68325083#1 -68325083#0 -227074775#2 -227074775#1 -227074775#0 -5705730 5679460#0 39974314 78288188#4 5705730" />
    </vehicle>
    <vehicle depart="249.67" departLane="best" id="moto366" type="moto_motorcycle">
        <route edges="46835355#1 -420572568 46121849 421120403 420569583 639805149 23334074#0 23334074#1 23334074#2 420567582 420567577 420567578 25563870#1 440633379 221605488 5029221 46121855 46121864#1 46121864#2 46788762 5678318 46121844#0 46121844#1 46121844#2 46121844#3 37575728#0 37575728#1 37575728#2 221694583#0 221694583#1 440633365 440633365-AddedOffRampEdge 455211317#0 455211317#1 455211317#2 221694584" />
    </vehicle>
    <vehicle depart="251.03" departLane="best" id="moto368" type="moto_motorcycle">
        <route edges="-497257603#1 -497257603#0 5679708#0 5679708#1 5679708#2 5679708#3 5679708#4 5679708#5 5681383#7 5681383#8" />
    </vehicle>
    <vehicle depart="253.08" departLane="best" id="moto371" type="moto_motorcycle">
        <route edges="221725599#1 221725602#1 5678623#0 5678623#1 -432554453#4 -432554453#3 -432554453#2 -432554453#1 -432554453#0 221725601#0 221725601#1 221725601#2 221725601#3 -227074765#3 -227074765#2 -227074765#1 -227074765#0 -68523760#2 -68523760#1 227074806 682886111#0 276024637#21 276024637#22 276024637#23 276024637#24 5681252 5677438#4 5677438#5 530568988#0" />
    </vehicle>
    <vehicle depart="253.76" departLane="best" id="moto372" type="moto_motorcycle">
        <route edges="37602216#1 542169856#2 222246286#2 450610492#22 450610492#23 450610492#24 450610492#25 450610492#26 450610492#27 221688252" />
    </vehicle>
    <vehicle depart="254.44" departLane="best" id="moto373" type="moto_motorcycle">
        <route edges="-409285510#4 221601322#13 5676353#3 5682095#3 37447362#0 68523758 5677899#1 5677899#2 68523776-AddedOnRampEdge 68523776 97010373#0 97010373#1 -420584214#1 -421118181#1 -421118181#0 -420584208 -420584213 -420584207 -420584203 -420584209 -420584211 -23042416#3" />
    </vehicle>
    <vehicle depart="259.22" departLane="best" id="moto380" type="moto_motorcycle">
        <route edges="-5707635#3 -5707635#2 -682886115#0 -227074787#3 276055771 5676687 227074765#0 227074765#1 227074765#2 227074765#3 5680396 -221688754#2 -221688754#0 219964442#0 219964442#1 221725599#0 221725599#1 5679786" />
    </vehicle>
    <vehicle depart="259.90" departLane="best" id="moto381" type="moto_motorcycle">
        <route edges="-40711969 5675274 5678147#11 -227074775#0 -5705730 5679460#0" />
    </vehicle>
    <vehicle depart="272.18" departLane="best" id="moto399" type="moto_motorcycle">
        <route edges="-46788749#1 421755066 221723366 420880048 468009828 -5679420 420512627 110155730#0 110155730#2 421754837 511768217 421754839 421121612 37394898#0 37394898#1 37394898#2 -464255708 -464255710" />
    </vehicle>
    <vehicle depart="272.86" departLane="best" id="moto400" type="moto_motorcycle">