<routes xmlns:xsi="http://www.w3.org/2001/XMLSchema-instance" xsi:noNamespaceSchemaLocation="http://sumo.dlr.de/xsd/routes_file.xsd">
    <vType id="truck_truck" vClass="truck">
    </vType>
    <trip depart="2.87" departLane="best" from="5680429#0" id="truck3" to="-420584214#1" type="truck_truck" />
    <trip depart="9.55" departLane="best" from="5677949#8" id="truck10" to="515885152#4" type="truck_truck" />
    <trip depart="15.28" departLane="best" from="432552979#1" id="truck16" to="630677037" type="truck_truck" />
    <trip depart="20.06" departLane="best" from="-37195087#2" id="truck21" to="145079213#2" type="truck_truck" />
    <trip depart="24.83" departLane="best" from="46846379#0" id="truck26" to="46818904#11" type="truck_truck" />
    <trip depart="37.25" departLane="best" from="23334091#2" id="truck39" to="110155732" type="truck_truck" />
    <trip depart="44.89" departLane="best" from="489437292#10" id="truck47" to="451413253#3" type="truck_truck" />
    <trip depart="50.62" departLane="best" from="5680880#3" id="truck53" to="5680024#4" type="truck_truck" />
    <trip depart="55.39" departLane="best" from="-108166470" id="truck58" to="222246285#2" type="truck_truck" />
    <trip depart="58.26" departLane="best" from="221602117#1" id="truck61" to="-232270200#2" type="truck_truck" />
    <trip depart="59.21" departLane="best" from="5680024#4" id="truck62" to="5705730" type="truck_truck" />
    <trip depart="60.17" departLane="best" from="-239629078" id="truck63" to="5677037#11" type="truck_truck" />
    <trip depart="62.08" departLane="best" from="39956193#2" id="truck65" to="456407470" type="truck_truck" />
    <trip depart="97.41" departLane="best" from="-483140981#1" id="truck102" to="221696386#3" type="truck_truck" />
    <trip depart="99.32" departLane="best" from="440633404#0" id="truck104" to="5676656#5" type="truck_truck" />
    <trip depart="113.65" departLane="best" from="78288188#3" id="truck119" to="68523772" type="truck_truck" />
    <trip depart="114.60" departLane="best" from="-308340267#1" id="truck120" to="107391104#1" type="truck_truck" />
    <trip depart="127.97" departLane="best" from="5678784#7" id="truck134" to="-421149636#0" type="truck_truck" />
    <trip depart="130.84" departLane="best" from="46835341#0" id="truck137" to="221585908#2" type="truck_truck" />
    <trip depart="135.61" departLane="best" from="5678442#3" id="truck142" to="46772625#5" type="truck_truck" />
    <trip depart="137.52" departLane="best" from="221603657" id="truck144" to="5680742#14" type="truck_truck" />
    <trip depart="139.43" departLane="best" from="5680589#3" id="truck146" to="-68523765#3" type="truck_truck" />
    <trip depart="141.34" departLane="best" from="5677150#0" id="truck148" to="5680419#3" type="truck_truck" />
    <trip depart="146.12" departLane="best" from="-221586637" id="truck153" to="5676159#0" type="truck_truck" />
    <trip depart="147.07" departLane="best" from="221759320#32" id="truck154" to="5681578" type="truck_truck" />
    <trip depart="157.58" departLane="best" from="5681939#0" id="truck165" to="-464255708" type="truck_truck" />
    <trip depart="163.31" departLane="best" from="227074786#2" id="truck171" to="463957168" type="truck_truck" />
    <trip depart="164.26" departLane="best" from="123001156#2" id="truck172" to="530568998#4" type="truck_truck" />
    <trip depart="165.22" departLane="best" from="-111781747#3" id="truck173" to="5681383#8" type="truck_truck" />
    <trip depart="173.81" departLane="best" from="-46121853#0" id="truck182" to="308338861#0" type="truck_truck" />
    <trip depart="182.41" departLane="best" from="5677818#0" id="truck191" to="-5678278" type="truck_truck" />
    <trip depart="189.09" departLane="best" from="5679109#1" id="truck198" to="-386201385" type="truck_truck" />
    <trip depart="190.05" departLane="best" from="275389083" id="truck199" to="46835368#1" type="truck_truck" />
    <trip depart="191.00" departLane="best" from="-5679171#6" id="truck200" to="511768217" type="truck_truck" />
    <trip depart="196.73" departLane="best" from="420880629" id="truck206" to="-227074781#11" type="truck_truck" />
    <trip depart="200.55" departLane="best" from="464551540#1" id="truck210" to="5710128#0" type="truck_truck" />
    <trip depart="202.46" departLane="best" from="530569001#4" id="truck212" to="420884510" type="truck_truck" />
    <trip depart="204.37" departLane="best" from="5680479" id="truck214" to="5676489#11" type="truck_truck" />
    <trip depart="211.06" departLane="best" from="43315004#0" id="truck221" to="-494221659#6" type="truck_truck" />
    <trip depart="217.74" departLane="best" from="5679548#0" id="truck228" to="5677037#38" type="truck_truck" />
    <trip depart="218.70" departLane="best" from="227074776#3" id="truck229" to="-154513049#0" type="truck_truck" />
    <trip depart="231.11" departLane="best" from="-227064556#2" id="truck242" to="23334061#4" type="truck_truck" />
    <trip depart="235.89" departLane="best" from="-221585908#5" id="truck247" to="451910413#9" type="truck_truck" />
    <trip depart="237.80" departLane="best" from="46863648#3" id="truck249" to="5677438#20" type="truck_truck" />
    <trip depart="246.39" departLane="best" from="5678246#3" id="truck258" to="587355778#0" type="truck_truck" />
    <trip depart="248.30" departLane="best" from="221688255#0" id="truck260" to="495491356#3" type="truck_truck" />
    <trip depart="249.26" departLane="best" from="587067518#1" id="truck261" to="275303277" type="truck_truck" />
    <trip depart="254.03" departLane="best" from="-451915592" id="truck266" to="658936642#0" type="truck_truck" />
    <trip depart="267.40" departLane="best" from="5680117" id="truck280" to="183916221#1" type="truck_truck" />
    <trip depart="271.22" departLane="best" from="-5682143" id="truck284" to="5677949#8" type="truck_truck" />
    <trip depart="281.73" departLane="best" from="5676159#0" id="truck295" to="222246980#1" type="truck_truck" />
    <trip depart="283.64" departLane="best" from="122660424#1" id="truck297" to="-46788750" type="truck_truck" />
    <trip depart="284.59" departLane="best" from="-5679109#1" id="truck298" to="-46786509" type="truck_truck" />
    <trip depart="288.41" departLane="best" from="221583273#0" id="truck302" to="-432554453#9" type="truck_truck" />
    <trip depart="292.23" departLane="best" from="497257926#2" id="truck306" to="-46818904#3" type="truck_truck" />
    <trip depart="293.19" departLane="best" from="5679854#7" id="truck307" to="420572564" type="truck_truck" />
    <trip depart="297.01" departLane="best" from="5682004#1" id="truck311" to="420319832#4" type="truck_truck" />
    <trip depart="299.87" departLane="best" from="451915595" id="truck314" to="221753936#7" type="truck_truck" />
    <trip depart="305.60" departLane="best" from="46818470#0" id="truck320" to="46818904#14" type="truck_truck" />
    <trip depart="330.43" departLane="best" from="479748559#1" id="truck346" to="221585914#8" type="truck_truck" />
    <trip depart="331.39" departLane="best" from="-221777100#8" id="truck347" to="5676994#10" type="truck_truck" />
    <trip depart="333.30" departLane="best" from="5680992#11" id="truck349" to="-5680476#4" type="truck_truck" />
    <trip depart="340.94" departLane="best" from="347309380#2" id="truck357" to="221759330#2" type="truck_truck" />
    <trip depart="342.85" departLane="best" from="250372840#5" id="truck359" to="43242499#10" type="truck_truck" />
    <trip depart="345.71" departLane="best" from="-5678262#9" id="truck362" to="227074781#14" type="truck_truck" />
    <trip depart="349.53" departLane="best" from="308340267#4" id="truck366" to="515885152#5" type="truck_truck" />
    <trip depart="353.35" departLane="best" from="68338645" id="truck370" to="5680993" type="truck_truck" />
    <trip depart="357.17" departLane="best" from="219964428#12" id="truck374" to="5678784#19" type="truck_truck" />
    <trip depart="364.81" departLane="best" from="221583273#0" id="truck382" to="221723367" type="truck_truck" />
    <trip depart="365.77" departLane="best" from="46121873#2" id="truck383" to="97010373#0" type="truck_truck" />
    <trip depart="370.54" departLane="best" from="-5678384#2" id="truck388" to="515885152#1" type="truck_truck" />
    <trip depart="373.41" departLane="best" from="5675963#5" id="truck391" to="525679230#0" type="truck_truck" />
    <trip depart="374.36" departLane="best" from="5678115#0" id="truck392" to="249968535#3" type="truck_truck" />
    <trip depart="377.23" departLane="best" from="-221759328#1" id="truck395" to="420882998" type="truck_truck" />
    <trip depart="380.09" departLane="best" from="421118178#1" id="truck398" to="39612790#1" type="truck_truck" />
    <trip depart="383.91" departLane="best" from="46863648#2" id="truck402" to="5679708#15" type="truck_truck" />
    <trip depart="389.64" departLane="best" from="5681148" id="truck408" to="78288186" type="truck_truck" />
    <trip depart="391.55" departLane="best" from="-420583307#1" id="truck410" to="46838322" type="truck_truck" />
    <trip depart="395.37" departLane="best" from="-46818905#3" id="truck414" to="450610492#18" type="truck_truck" />
    <trip depart="399.19" departLane="best" from="107391104#20" id="truck418" to="5680992#9" type="truck_truck" />
    <trip depart="409.70" departLane="best" from="68523754#1" id="truck429" to="221696386#1" type="truck_truck" />
    <trip depart="417.34" departLane="best" from="483704094#4" id="truck437" to="5674278#2" type="truck_truck" />
    <trip depart="419.25" departLane="best" from="46838322" id="truck439" to="221759320#32" type="truck_truck" />
    <trip depart="422.12" departLane="best" from="221585916#9" id="truck442" to="5676563" type="truck_truck" />
    <trip depart="426.89" departLane="best" from="5678277#6" id="truck447" to="420346448#3" type="truck_truck" />
    <trip depart="429.76" departLane="best" from="587355768" id="truck450" to="-497253780#8" type="truck_truck" />
    <trip depart="440.26" departLane="best" from="451915591#2" id="truck461" to="5681030#6" type="truck_truck" />
    <trip depart="441.22" departLane="best" from="-587355743" id="truck462" to="-288862241#1" type="truck_truck" />
    <trip depart="444.08" departLane="best" from="-46818468#3" id="truck465" to="5705382#0" type="truck_truck" />
    <trip depart="452.68" departLane="best" from="227064534#0" id="truck474" to="360621303" type="truck_truck" />
    <trip depart="453.63" departLane="best" from="5706037" id="truck475" to="5679758#2" type="truck_truck" />
    <trip depart="463.18" departLane="best" from="-5680913#1" id="truck485" to="107391104#25" type="truck_truck" />
    <trip depart="476.55" departLane="best" from="5677340#3" id="truck499" to="5679904#2" type="truck_truck" />
    <trip depart="478.46" departLane="best" from="587355787#0" id="truck501" to="-239626767#1" type="truck_truck" />
    <trip depart="486.10" departLane="best" from="46786524" id="truck509" to="-432554453#10" type="truck_truck" />
    <trip depart="487.06" departLane="best" from="497259896#0" id="truck510" to="5679708#3" type="truck_truck" />
    <trip depart="501.38" departLane="best" from="535252384" id="truck525" to="608794060#0" type="truck_truck" />
    <trip depart="506.16" departLane="best" from="227064522#8" id="truck530" to="5677037#21" type="truck_truck" />
    <trip depart="509.98" departLane="best" from="46835367#3" id="truck534" to="-221688754#0" type="truck_truck" />
    <trip depart="522.39" departLane="best" from="-494221659#8" id="truck547" to="46835336#18" type="truck_truck" />
    <trip depart="524.30" departLane="best" from="46865765#6" id="truck549" to="420346488#2" type="truck_truck" />
    <trip depart="533.85" departLane="best" from="-183103228" id="truck559" to="5676563" type="truck_truck" />
    <trip depart="536.72" departLane="best" from="5678442#23" id="truck562" to="5678195#1" type="truck_truck" />
    <trip depart="537.67" departLane="best" from="-288862241#1" id="truck563" to="5679854#4" type="truck_truck" />
    <trip depart="538.63" departLane="best" from="-222246978" id="truck564" to="-221585908#3" type="truck_truck" />
    <trip depart="547.22" departLane="best" from="46137554#0" id="truck573" to="440633365-AddedOffRampEdge" type="truck_truck" />
    <trip depart="549.13" departLane="best" from="221777100#5" id="truck575" to="222248832#1" type="truck_truck" />
    <trip depart="550.09" departLane="best" from="-525679230#5" id="truck576" to="421120405" type="truck_truck" />
    <trip depart="552.00" departLane="best" from="5680742#14" id="truck578" to="227064534#1" type="truck_truck" />
    <trip depart="552.95" departLane="best" from="556550146#3" id="truck579" to="5678373" type="truck_truck" />
    <trip depart="556.77" departLane="best" from="46863844#2" id="truck583" to="-5679826" type="truck_truck" />
    <trip depart="559.64" departLane="best" from="34452220#3" id="truck586" to="5681383#11" type="truck_truck" />
    <trip depart="567.28" departLane="best" from="5679449" id="truck594" to="46819926#0" type="truck_truck" />
    <trip depart="578.74" departLane="best" from="-497253772" id="truck606" to="23042440#5" type="truck_truck" />
    <trip depart="579.69" departLane="best" from="221583273#0" id="truck607" to="276050438" type="truck_truck" />
    <trip depart="583.51" departLane="best" from="483704094#7" id="truck611" to="221601322#3" type="truck_truck" />
    <trip depart="585.42" departLane="best" from="5680742#2" id="truck613" to="5680116#0" type="truck_truck" />
    <trip depart="587.33" departLane="best" from="-46818902#1" id="truck615" to="227064534#4" type="truck_truck" />
    <trip depart="609.30" departLane="best" from="335394629" id="truck638" to="221601322#8" type="truck_truck" />
    <trip depart="612.16" departLane="best" from="5678101#10" id="truck641" to="409285510#4" type="truck_truck" />
    <trip depart="615.03" departLane="best" from="37394898#1" id="truck644" to="221597280#6" type="truck_truck" />
    <trip depart="621.71" departLane="best" from="5679171#0" id="truck651" to="221601322#8" type="truck_truck" />
    <trip depart="622.67" departLane="best" from="5676803#3" id="truck652" to="221585917#3" type="truck_truck" />
    <trip depart="629.35" departLane="best" from="227064555#0" id="truck659" to="-221725601#2" type="truck_truck" />
    <trip depart="632.22" departLane="best" from="-46818460#1" id="truck662" to="525679230#1" type="truck_truck" />
    <trip depart="633.17" departLane="best" from="34452220#1" id="truck663" to="-151471702#0" type="truck_truck" />
    <trip depart="634.13" departLane="best" from="-360608776" id="truck664" to="221570521#2" type="truck_truck" />
    <trip depart="635.08" departLane="best" from="5678442#32" id="truck665" to="456244378#1" type="truck_truck" />
    <trip depart="639.86" departLane="best" from="350687715#0" id="truck670" to="-46121848#0" type="truck_truck" />
    <trip depart="642.72" departLane="best" from="107391104#26" id="truck673" to="-497257603#8" type="truck_truck" />
    <trip depart="651.32" departLane="best" from="5677438#13" id="truck682" to="227064521" type="truck_truck" />
    <trip depart="656.09" departLane="best" from="-5677150#1" id="truck687" to="5677438#1" type="truck_truck" />
    <trip depart="657.05" departLane="best" from="37434658#2" id="truck688" to="506650490" type="truck_truck" />
    <trip depart="658.96" departLane="best" from="-232270198#2" id="truck690" to="5677397#9" type="truck_truck" />
    <trip depart="664.69" departLane="best" from="5676489#12" id="truck696" to="-5682006" type="truck_truck" />
    <trip depart="665.64" departLane="best" from="222254952#0" id="truck697" to="5677438#19" type="truck_truck" />
    <trip depart="672.33" departLane="best" from="420883007#0" id="truck704" to="5678101#13" type="truck_truck" />
    <trip depart="673.28" departLane="best" from="552015559#1" id="truck705" to="-420346445" type="truck_truck" />
    <trip depart="674.24" departLane="best" from="46786496" id="truck706" to="5678442#12" type="truck_truck" />
    <trip depart="682.83" departLane="best" from="-321542908" id="truck715" to="46846383" type="truck_truck" />
    <trip depart="686.65" departLane="best" from="5677160#3" id="truck719" to="-221777100#1" type="truck_truck" />
    <trip depart="687.61" departLane="best" from="-239626766" id="truck720" to="5677430#8" type="truck_truck" />
    <trip depart="688.56" departLane="best" from="227064522#1" id="truck721" to="239626766" type="truck_truck" />
    <trip depart="693.34" departLane="best" from="23334065#3" id="truck726" to="46865765#10" type="truck_truck" />
    <trip depart="694.29" departLane="best" from="122625696" id="truck727" to="-464137214#0" type="truck_truck" />
    <trip depart="700.02" departLane="best" from="420319832#0" id="truck733" to="-46818468#6" type="truck_truck" />
    <trip depart="700.98" departLane="best" from="5679171#7" id="truck734" to="37624370#1" type="truck_truck" />
    <trip depart="703.84" departLane="best" from="5678784#4" id="truck737" to="221777109#14" type="truck_truck" />
    <trip depart="704.80" departLane="best" from="222246286#4" id="truck738" to="-308340267#4" type="truck_truck" />
    <trip depart="708.62" departLane="best" from="5677585#5" id="truck742" to="421116795#1" type="truck_truck" />
    <trip depart="710.53" departLane="best" from="227064523#6" id="truck744" to="5678115#2" type="truck_truck" />
    <trip depart="719.12" departLane="best" from="5677150#1" id="truck753" to="46863691#4" type="truck_truck" />
    <trip depart="732.49" departLane="best" from="452280723" id="truck767" to="5678442#27" type="truck_truck" />
    <trip depart="741.09" departLane="best" from="-308340267#0" id="truck776" to="-23334091#3" type="truck_truck" />
    <trip depart="742.04" departLane="best" from="311764602" id="truck777" to="420346484#2" type="truck_truck" />
    <trip depart="744.91" departLane="best" from="5675264" id="truck780" to="5679854#10" type="truck_truck" />
    <trip depart="750.64" departLane="best" from="227074781#6" id="truck786" to="46820144" type="truck_truck" />
    <trip depart="756.37" departLane="best" from="5682184#0" id="truck792" to="420886410#1" type="truck_truck" />
    <trip depart="758.28" departLane="best" from="222246981#0" id="truck794" to="-227074781#13" type="truck_truck" />
    <trip depart="774.51" departLane="best" from="221753949#0" id="truck811" to="46818905#6" type="truck_truck" />
    <trip depart="775.47" departLane="best" from="-497257603#12" id="truck812" to="680852624" type="truck_truck" />
    <trip depart="779.29" departLane="best" from="221586638#5" id="truck816" to="5678277#1" type="truck_truck" />
    <trip depart="784.06" departLane="best" from="5677340#1" id="truck821" to="5677397#9" type="truck_truck" />
    <trip depart="785.97" departLane="best" from="5678759#1" id="truck823" to="-526209963#1" type="truck_truck" />
    <trip depart="789.79" departLane="best" from="5681132#0" id="truck827" to="5680085#0" type="truck_truck" />
    <trip depart="797.43" departLane="best" from="46835370#0" id="truck835" to="497561531#0" type="truck_truck" />
    <trip depart="798.39" departLane="best" from="46788761" id="truck836" to="-5682164#3" type="truck_truck" />
    <trip depart="800.30" departLane="best" from="-601732568#1" id="truck838" to="626315789#3" type="truck_truck" />
    <trip depart="804.12" departLane="best" from="5681577#0" id="truck842" to="5677949#21" type="truck_truck" />
    <trip depart="808.89" departLane="best" from="221585914#21" id="truck847" to="221605483#1" type="truck_truck" />
    <trip depart="813.67" departLane="best" from="497257603#3" id="truck852" to="-494221659#0" type="truck_truck" />
    <trip depart="833.72" departLane="best" from="440633404#6" id="truck873" to="420584206" type="truck_truck" />
    <trip depart="840.41" departLane="best" from="5676690#0" id="truck880" to="-5679171#8" type="truck_truck" />
    <trip depart="850.92" departLane="best" from="25198746#3" id="truck891" to="420883006" type="truck_truck" />
    <trip depart="857.60" departLane="best" from="276024637#0" id="truck898" to="456391963#0" type="truck_truck" />
    <trip depart="860.47" departLane="best" from="111781747#5" id="truck901" to="5676914" type="truck_truck" />
    <trip depart="863.33" departLane="best" from="-353256024" id="truck904" to="46121848#0" type="truck_truck" />
    <trip depart="864.29" departLane="best" from="-23113651#2" id="truck905" to="455211323#1" type="truck_truck" />
    <trip depart="871.93" departLane="best" from="-227074786#1" id="truck913" to="40416342#1" type="truck_truck" />
    <trip depart="887.21" departLane="best" from="-587355778#2" id="truck929" to="-148285572#3" type="truck_truck" />
    <trip depart="888.16" departLane="best" from="-221585918#1" id="truck930" to="221723366" type="truck_truck" />
    <trip depart="889.12" departLane="best" from="483140982#1" id="truck931" to="451934642" type="truck_truck" />
    <trip depart="890.07" departLane="best" from="43242499#10" id="truck932" to="5678442#18" type="truck_truck" />
    <trip depart="891.03" departLane="best" from="111781747#5" id="truck933" to="227064522#7" type="truck_truck" />
    <trip depart="895.80" departLane="best" from="-219964428#9" id="truck938" to="-658936635#1" type="truck_truck" />
    <trip depart="902.49" departLane="best" from="221585914#15" id="truck945" to="5678277#1" type="truck_truck" />
    <trip depart="905.35" departLane="best" from="221725598#0" id="truck948" to="221731900" type="truck_truck" />
    <trip depart="927.32" departLane="best" from="542169856#7" id="truck971" to="460779250#12" type="truck_truck" />
    <trip depart="935.91" departLane="best" from="222258273#2" id="truck980" to="221585907#3" type="truck_truck" />
    <trip depart="939.73" departLane="best" from="275303312" id="truck984" to="461075409#5" type="truck_truck" />
    <trip depart="942.60" departLane="best" from="460779250#2" id="truck987" to="295384095" type="truck_truck" />
    <trip depart="945.46" departLane="best" from="420346480#1" id="truck990" to="473475840" type="truck_truck" />
    <trip depart="951.19" departLane="best" from="420304949" id="truck996" to="5681149#0" type="truck_truck" />
    <trip depart="957.88" departLane="best" from="-185086369" id="truck1003" to="420886411" type="truck_truck" />
    <trip depart="965.52" departLane="best" from="483704094#1" id="truck1011" to="5678195#1" type="truck_truck" />
    <trip depart="976.98" departLane="best" from="-227074781#19" id="truck1023" to="-183916203#1" type="truck_truck" />
    <trip depart="979.84" departLane="best" from="455211317#0" id="truck1026" to="5679765" type="truck_truck" />
    <trip depart="985.57" departLane="best" from="5680631#0" id="truck1032" to="46121844#0" type="truck_truck" />
    <trip depart="996.08" departLane="best" from="639118784#0" id="truck1043" to="-227074786#3" type="truck_truck" />
    <trip depart="1004.67" departLane="best" from="-40416338#1" id="truck1052" to="46835336#21" type="truck_truck" />
    <trip depart="1010.40" departLane="best" from="221603657" id="truck1058" to="227074776#3" type="truck_truck" />
    <trip depart="1012.31" departLane="best" from="-5678262#8" id="truck1060" to="37434658#6" type="truck_truck" />
    <trip depart="1015.18" departLane="best" from="-420346448#0" id="truck1063" to="46817493#4" type="truck_truck" />
    <trip depart="1022.82" departLane="best" from="-232270198#2" id="truck1071" to="347014805#0" type="truck_truck" />
    <trip depart="1048.60" departLane="best" from="46865764#0" id="truck1098" to="542169856#4" type="truck_truck" />
    <trip depart="1049.56" departLane="best" from="5677438#16" id="truck1099" to="-40117454#2" type="truck_truck" />
    <trip depart="1059.11" departLane="best" from="23334091#3" id="truck1109" to="5676838#1" type="truck_truck" />
    <trip depart="1060.06" departLane="best" from="601732566" id="truck1110" to="34452219" type="truck_truck" />
    <trip depart="1072.48" departLane="best" from="308340267#4" id="truck1123" to="515885146" type="truck_truck" />
    <trip depart="1075.34" departLane="best" from="5678957" id="truck1126" to="46865764#3" type="truck_truck" />
    <trip depart="1079.16" departLane="best" from="451910414#7" id="truck1130" to="587067515" type="truck_truck" />
    <trip depart="1082.03" departLane="best" from="288862240#8" id="truck1133" to="-221731898#1" type="truck_truck" />
    <trip depart="1089.67" departLane="best" from="421121612" id="truck1141" to="46863673#3" type="truck_truck" />
    <trip depart="1098.26" departLane="best" from="420584208" id="truck1150" to="295384096#2" type="truck_truck" />
    <trip depart="1101.13" departLane="best" from="497256110#0" id="truck1153" to="46863844#4" type="truck_truck" />
    <trip depart="1103.04" departLane="best" from="420317173" id="truck1155" to="-497253780#5" type="truck_truck" />
    <trip depart="1112.59" departLane="best" from="219964428#3" id="truck1165" to="451910412#2" type="truck_truck" />
    <trip depart="1115.45" departLane="best" from="450610492#21" id="truck1168" to="-46137554#1" type="truck_truck" />
    <trip depart="1116.41" departLane="best" from="-432554453#8" id="truck1169" to="5677397#6" type="truck_truck" />
    <trip depart="1119.27" departLane="best" from="5678419" id="truck1172" to="5676708#7" type="truck_truck" />
    <trip depart="1125.96" departLane="best" from="524340771#0" id="truck1179" to="46838315" type="truck_truck" />
    <trip depart="1128.82" departLane="best" from="-227074786#5" id="truck1182" to="227064535#0" type="truck_truck" />
    <trip depart="1132.64" departLane="best" from="488941121#0" id="truck1186" to="-432552966#0" type="truck_truck" />
    <trip depart="1133.60" departLane="best" from="587355768" id="truck1187" to="5677585#5" type="truck_truck" />
    <trip depart="1145.06" departLane="best" from="5705382#3" id="truck1199" to="222246542#2" type="truck_truck" />
    <trip depart="1154.61" departLane="best" from="-227064525" id="truck1209" to="-432554453#12" type="truck_truck" />
    <trip depart="1158.43" departLane="best" from="587067518#0" id="truck1213" to="-639763612" type="truck_truck" />
    <trip depart="1160.34" departLane="best" from="46863648#3" id="truck1215" to="-5677836" type="truck_truck" />
    <trip depart="1164.16" departLane="best" from="-506650490" id="truck1219" to="275303271" type="truck_truck" />
    <trip depart="1167.02" departLane="best" from="500267151#1" id="truck1222" to="-111781747#4" type="truck_truck" />
    <trip depart="1174.66" departLane="best" from="-46788749#1" id="truck1230" to="5677340#1" type="truck_truck" />
    <trip depart="1175.62" departLane="best" from="5676489#12" id="truck1231" to="-46865764#9" type="truck_truck" />
    <trip depart="1176.57" departLane="best" from="68523754#2" id="truck1232" to="-497257603#2" type="truck_truck" />
    <trip depart="1177.53" departLane="best" from="421755067#0" id="truck1233" to="-154513057" type="truck_truck" />
    <trip depart="1185.17" departLane="best" from="221696377#4" id="truck1241" to="-497253780#2" type="truck_truck" />
    <trip depart="1188.99" departLane="best" from="497149598#1" id="truck1245" to="5679471" type="truck_truck" />
    <trip depart="1194.72" departLane="best" from="-432554453#0" id="truck1251" to="420880041" type="truck_truck" />
    <trip depart="1206.18" departLane="best" from="221605488" id="truck1263" to="421121616" type="truck_truck" />
    <trip depart="1207.13" departLane="best" from="-5680631#1" id="truck1264" to="5678215#3" type="truck_truck" />
    <trip depart="1208.09" departLane="best" from="432552980#0" id="truck1265" to="25564006#0" type="truck_truck" />
    <trip depart="1212.86" departLane="best" from="-40416342#0" id="truck1270" to="347014804#3" type="truck_truck" />
    <trip depart="1216.68" departLane="best" from="515885162#1" id="truck1274" to="524340771#0" type="truck_truck" />
    <trip depart="1219.55" departLane="best" from="535252377" id="truck1277" to="-5678262#12" type="truck_truck" />
    <trip depart="1220.50" departLane="best" from="-46121848#5" id="truck1278" to="5677438#2" type="truck_truck" />
    <trip depart="1237.69" departLane="best" from="227064535#5" id="truck1296" to="420880635" type="truck_truck" />
    <trip depart="1238.65" departLane="best" from="5680637#6" id="truck1297" to="-5680035#1" type="truck_truck" />
    <trip depart="1239.60" departLane="best" from="5677949#26" id="truck1298" to="654744285#3" type="truck_truck" />
    <trip depart="1243.42" departLane="best" from="451380987#0" id="truck1302" to="-154513056" type="truck_truck" />
    <trip depart="1246.29" departLane="best" from="37396284" id="truck1305" to="46788742#2" type="truck_truck" />
    <trip depart="1247.24" departLane="best" from="-5679250" id="truck1306" to="5680742#8" type="truck_truck" />
    <trip depart="1252.97" departLane="best" from="46863844#8" id="truck1312" to="5679490#0" type="truck_truck" />
    <trip depart="1253.93" departLane="best" from="552015559#1" id="truck1313" to="-451910414#2" type="truck_truck" />
    <trip depart="1259.66" departLane="best" from="497259892#0" id="truck1319" to="23042440#3" type="truck_truck" />
    <trip depart="1261.57" departLane="best" from="-420567580" id="truck1321" to="-471943031#0" type="truck_truck" />
    <trip depart="1266.35" departLane="best" from="5677945#0" id="truck1326" to="51980526#1" type="truck_truck" />
    <trip depart="1269.21" departLane="best" from="-5680589#3" id="truck1329" to="5677438#14" type="truck_truck" />
    <trip depart="1273.99" departLane="best" from="-451910414#5" id="truck1334" to="-5677270" type="truck_truck" />
    <trip depart="1275.90" departLane="best" from="497257603#9" id="truck1336" to="-222248832#1" type="truck_truck" />
    <trip depart="1277.81" departLane="best" from="-420318559" id="truck1338" to="206610786#16" type="truck_truck" />