<routes xmlns:xsi="http://www.w3.org/2001/XMLSchema-instance" xsi:noNamespaceSchemaLocation="http://sumo.dlr.de/xsd/routes_file.xsd">
    <vType id="moto_motorcycle" vClass="motorcycle">
    </vType>
    <trip depart="0.68" departLane="best" from="451910413#0" id="moto1" to="221585908#5" type="moto_motorcycle" />
    <trip depart="1.36" departLane="best" from="-232270198#0" id="moto2" to="239626764#1" type="moto_motorcycle" />
    <trip depart="6.82" departLane="best" from="40416344#0" id="moto10" to="107391104#24" type="moto_motorcycle" />
    <trip depart="8.87" departLane="best" from="46179211#3" id="moto13" to="495315400" type="moto_motorcycle" />
    <trip depart="10.23" departLane="best" from="5678215#1" id="moto15" to="221725601#0" type="moto_motorcycle" />
    <trip depart="10.91" departLane="best" from="5679887#2" id="moto16" to="5679826" type="moto_motorcycle" />
    <trip depart="13.64" departLane="best" from="221586638#5" id="moto20" to="276050436" type="moto_motorcycle" />
    <trip depart="21.15" departLane="best" from="-497257603#9" id="moto31" to="46818904#15" type="moto_motorcycle" />
    <trip depart="22.51" departLane="best" from="43242499#4" id="moto33" to="420346480#2" type="moto_motorcycle" />
    <trip depart="26.60" departLane="best" from="5682095#3" id="moto39" to="420880630" type="moto_motorcycle" />
    <trip depart="30.01" departLane="best" from="530569001#5" id="moto44" to="276083330#1" type="moto_motorcycle" />
    <trip depart="31.38" departLane="best" from="5681089" id="moto46" to="68523779#1" type="moto_motorcycle" />
    <trip depart="34.11" departLane="best" from="107391104#21" id="moto50" to="5679437#2" type="moto_motorcycle" />
    <trip depart="34.79" departLane="best" from="154513057" id="moto51" to="46121872" type="moto_motorcycle" />
    <trip depart="37.52" departLane="best" from="46863851#0" id="moto55" to="46863840#1" type="moto_motorcycle" />
    <trip depart="38.88" departLane="best" from="420875709#1" id="moto57" to="39974314" type="moto_motorcycle" />
    <trip depart="41.61" departLane="best" from="46121844#1" id="moto61" to="46121848#4" type="moto_motorcycle" />
    <trip depart="44.34" departLane="best" from="227074794#2" id="moto65" to="46818452#1-AddedOnRampEdge" type="moto_motorcycle" />
    <trip depart="45.70" departLane="best" from="321542908" id="moto67" to="5681383#8" type="moto_motorcycle" />
    <trip depart="48.43" departLane="best" from="221759318#0" id="moto71" to="46818451#1" type="moto_motorcycle" />
    <trip depart="49.80" departLane="best" from="5678101#6" id="moto73" to="489437292#0" type="moto_motorcycle" />
    <trip depart="51.16" departLane="best" from="5677949#9" id="moto75" to="41246540" type="moto_motorcycle" />
    <trip depart="51.84" departLane="best" from="608794060#0" id="moto76" to="5678366#6" type="moto_motorcycle" />
    <trip depart="62.08" departLane="best" from="-38341527#0" id="moto91" to="221759321#2" type="moto_motorcycle" />
    <trip depart="63.44" departLane="best" from="46786486" id="moto93" to="5679171#3" type="moto_motorcycle" />
    <trip depart="66.85" departLane="best" from="5677585#4" id="moto98" to="5675523" type="moto_motorcycle" />
    <trip depart="67.53" departLane="best" from="460584836#1" id="moto99" to="5674854" type="moto_motorcycle" />
    <trip depart="72.99" departLane="best" from="5681892" id="moto107" to="5679708#19" type="moto_motorcycle" />
    <trip depart="74.35" departLane="best" from="496984337" id="moto109" to="-288862241#2" type="moto_motorcycle" />
    <trip depart="75.04" departLane="best" from="311764602" id="moto110" to="525646871#1" type="moto_motorcycle" />
    <trip depart="76.40" departLane="best" from="227074799#1" id="moto112" to="5678366#3" type="moto_motorcycle" />
    <trip depart="77.08" departLane="best" from="5676800" id="moto113" to="641915866#3" type="moto_motorcycle" />
    <trip depart="78.45" departLane="best" from="-221585916#7" id="moto115" to="221725598#5" type="moto_motorcycle" />
    <trip depart="97.55" departLane="best" from="496995106" id="moto143" to="46863844#7" type="moto_motorcycle" />
    <trip depart="98.91" departLane="best" from="5678147#2" id="moto145" to="587355761#0" type="moto_motorcycle" />
    <trip depart="99.59" departLane="best" from="420346478#0" id="moto146" to="420584903#0" type="moto_motorcycle" />
    <trip depart="100.28" departLane="best" from="488941121#8" id="moto147" to="288862240#3" type="moto_motorcycle" />
    <trip depart="100.96" departLane="best" from="46121850#0" id="moto148" to="227064535#7" type="moto_motorcycle" />
    <trip depart="101.64" departLane="best" from="-497257600" id="moto149" to="-497257603#8" type="moto_motorcycle" />
    <trip depart="102.32" departLane="best" from="221696377#4" id="moto150" to="525679230#1" type="moto_motorcycle" />
    <trip depart="105.05" departLane="best" from="-239626769#2" id="moto154" to="239626767#1" type="moto_motorcycle" />
    <trip depart="106.42" departLane="best" from="46838317#1" id="moto156" to="353256024" type="moto_motorcycle" />
    <trip depart="115.28" departLane="best" from="221586638#10" id="moto169" to="221585914#0" type="moto_motorcycle" />
    <trip depart="115.97" departLane="best" from="227002831#2" id="moto170" to="46838302#1" type="moto_motorcycle" />
    <trip depart="116.65" departLane="best" from="-221688255#1" id="moto171" to="497254142" type="moto_motorcycle" />
    <trip depart="119.38" departLane="best" from="40416338#1" id="moto175" to="5680996" type="moto_motorcycle" />
    <trip depart="120.06" departLane="best" from="-5681578" id="moto176" to="5680736" type="moto_motorcycle" />
    <trip depart="120.74" departLane="best" from="5676803#3" id="moto177" to="97010425#0" type="moto_motorcycle" />
    <trip depart="134.38" departLane="best" from="227064523#4" id="moto197" to="227064534#5" type="moto_motorcycle" />
    <trip depart="144.62" departLane="best" from="5677818#4" id="moto212" to="46865765#0" type="moto_motorcycle" />
    <trip depart="145.98" departLane="best" from="5678574" id="moto214" to="461075409#0" type="moto_motorcycle" />
    <trip depart="152.12" departLane="best" from="5675992" id="moto223" to="221725598#8" type="moto_motorcycle" />
    <trip depart="158.26" departLane="best" from="46788758" id="moto232" to="46835348" type="moto_motorcycle" />
    <trip depart="159.62" departLane="best" from="43242499#2" id="moto234" to="524340776#7" type="moto_motorcycle" />
    <trip depart="163.03" departLane="best" from="5678442#18" id="moto239" to="-587067529#0" type="moto_motorcycle" />
    <trip depart="167.13" departLane="best" from="-5681578" id="moto245" to="420567578" type="moto_motorcycle" />
    <trip depart="168.49" departLane="best" from="-222254955" id="moto247" to="654744274#6" type="moto_motorcycle" />
    <trip depart="171.90" departLane="best" from="-421149636#0" id="moto252" to="-654744274#6" type="moto_motorcycle" />
    <trip depart="175.31" departLane="best" from="38341527#2" id="moto257" to="227064556#2" type="moto_motorcycle" />
    <trip depart="176.68" departLane="best" from="-420882994" id="moto259" to="5681248#0" type="moto_motorcycle" />
    <trip depart="179.41" departLane="best" from="440633404#7" id="moto263" to="183103118#1" type="moto_motorcycle" />
    <trip depart="180.09" departLane="best" from="222254955" id="moto264" to="420880042#0" type="moto_motorcycle" />
    <trip depart="180.77" departLane="best" from="-5680631#6" id="moto265" to="524340771#2" type="moto_motorcycle" />
    <trip depart="183.50" departLane="best" from="46835402#1" id="moto269" to="-5679472" type="moto_motorcycle" />
    <trip depart="186.91" departLane="best" from="300084882" id="moto274" to="227074790#0" type="moto_motorcycle" />
    <trip depart="188.27" departLane="best" from="37394899#1" id="moto276" to="-154513056" type="moto_motorcycle" />
    <trip depart="188.96" departLane="best" from="227074781#15" id="moto277" to="23334061#3" type="moto_motorcycle" />
    <trip depart="191.00" departLane="best" from="420875707#1" id="moto280" to="654744285#6" type="moto_motorcycle" />
    <trip depart="193.73" departLane="best" from="-420880051#1" id="moto284" to="46863691#0" type="moto_motorcycle" />
    <trip depart="200.55" departLane="best" from="-46121853#0" id="moto294" to="-496982424" type="moto_motorcycle" />
    <trip depart="211.47" departLane="best" from="-46835364" id="moto310" to="5680024#4" type="moto_motorcycle" />
    <trip depart="212.83" departLane="best" from="5681491#2" id="moto312" to="-432552970#0" type="moto_motorcycle" />
    <trip depart="214.88" departLane="best" from="489437292#10" id="moto315" to="5678101#1" type="moto_motorcycle" />
    <trip depart="215.56" departLane="best" from="-639763613#0" id="moto316" to="37977793" type="moto_motorcycle" />
    <trip depart="219.65" departLane="best" from="488941121#7" id="moto322" to="535252372#3" type="moto_motorcycle" />
    <trip depart="222.38" departLane="best" from="-239626766" id="moto326" to="-46121853#2" type="moto_motorcycle" />
    <trip depart="224.43" departLane="best" from="-625647904#2" id="moto329" to="524340776#4" type="moto_motorcycle" />
    <trip depart="227.16" departLane="best" from="440606690" id="moto333" to="227074794#2" type="moto_motorcycle" />
    <trip depart="227.84" departLane="best" from="658936639#0" id="moto334" to="658936639#0" type="moto_motorcycle" />
    <trip depart="232.61" departLane="best" from="-409285510#1" id="moto341" to="5682095#2" type="moto_motorcycle" />
    <trip depart="236.71" departLane="best" from="460584837#7" id="moto347" to="5681395#1" type="moto_motorcycle" />
    <trip depart="238.07" departLane="best" from="5677949#10" id="moto349" to="334341973#0" type="moto_motorcycle" />
    <trip depart="238.75" departLane="best" from="483704094#11" id="moto350" to="222246286#5" type="moto_motorcycle" />
    <trip depart="239.43" departLane="best" from="-451413253#1" id="moto351" to="-524340771#1" type="moto_motorcycle" />
    <trip depart="241.48" departLane="best" from="5677167#0" id="moto354" to="420346488#0" type="moto_motorcycle" />
    <trip depart="245.57" departLane="best" from="221585908#1" id="moto360" to="46865764#3" type="moto_motorcycle" />
    <trip depart="246.94" departLane="best" from="-432552974" id="moto362" to="420319832#9" type="moto_motorcycle" />
    <trip depart="248.99" departLane="best" from="5677818#4" id="moto365" to="5705730" type="moto_motorcycle" />
    <trip depart="249.67" departLane="best" from="46835355#1" id="moto366" to="221694584" type="moto_motorcycle" />
    <trip depart="251.03" departLane="best" from="-497257603#1" id="moto368" to="5681383#8" type="moto_motorcycle" />
    <trip depart="253.08" departLane="best" from="221725599#1" id="moto371" to="530568988#0" type="moto_motorcycle" />
    <trip depart="253.76" departLane="best" from="37602216#1" id="moto372" to="221688252" type="moto_motorcycle" />
    <trip depart="254.44" departLane="best" from="-409285510#4" id="moto373" to="-23042416#3" type="moto_motorcycle" />
    <trip depart="259.22" departLane="best" from="-5707635#3" id="moto380" to="5679786" type="moto_motorcycle" />
    <trip depart="259.90" departLane="best" from="-40711969" id="moto381" to="5679460#0" type="moto_motorcycle" />
    <trip depart="272.18" departLane="best" from="-46788749#1" id="moto399" to="-464255710" type="moto_motorcycle" />
    <trip depart="272.86" departLane="best" from="486010416" id="moto400" to="587355743" type="moto_motorcycle" />
    <trip depart="273.54" departLane="best" from="450610492#0" id="moto401" to="221759321#2" type="moto_motorcycle" />
    <trip depart="275.59" departLane="best" from="46818904#8" id="moto404" to="5677926#5" type="moto_motorcycle" />
    <trip depart="277.64" departLane="best" from="5679854#1" id="moto407" to="-5680477" type="moto_motorcycle" />
    <trip depart="279.00" departLane="best" from="5674509" id="moto409" to="578129950#1" type="moto_motorcycle" />
    <trip depart="279.68" departLane="best" from="221696377#1" id="moto410" to="-23113651#2" type="moto_motorcycle" />
    <trip depart="281.73" departLane="best" from="5679879" id="moto413" to="-460581660#2" type="moto_motorcycle" />
    <trip depart="284.46" departLane="best" from="5674514" id="moto417" to="5677949#28" type="moto_motorcycle" />
    <trip depart="287.87" departLane="best" from="34593472#9" id="moto422" to="5679708#8" type="moto_motorcycle" />
    <trip depart="290.60" departLane="best" from="421121616" id="moto426" to="46817493#5" type="moto_motorcycle" />
    <trip depart="297.42" departLane="best" from="227074781#16" id="moto436" to="221777109#19" type="moto_motorcycle" />
    <trip depart="298.10" departLane="best" from="5676262#10" id="moto437" to="46786511" type="moto_motorcycle" />
    <trip depart="298.78" departLane="best" from="5680159#6" id="moto438" to="221585914#6" type="moto_motorcycle" />
    <trip depart="303.56" departLane="best" from="-5678753" id="moto445" to="5678442#12" type="moto_motorcycle" />
    <trip depart="308.33" departLane="best" from="5677037#0" id="moto452" to="-5675255" type="moto_motorcycle" />
    <trip depart="312.43" departLane="best" from="464551539#1" id="moto458" to="641437652#1" type="moto_motorcycle" />
    <trip depart="313.79" departLane="best" from="420346490#3" id="moto460" to="5676803#3" type="moto_motorcycle" />
    <trip depart="317.20" departLane="best" from="221585914#16" id="moto465" to="5678442#19" type="moto_motorcycle" />
    <trip depart="318.56" departLane="best" from="-420880037" id="moto467" to="460585584#0" type="moto_motorcycle" />
    <trip depart="319.93" departLane="best" from="250372840#4" id="moto469" to="-5678101#10" type="moto_motorcycle" />
    <trip depart="323.34" departLane="best" from="34593472#4" id="moto474" to="5680992#5" type="moto_motorcycle" />
    <trip depart="324.70" departLane="best" from="221696386#1" id="moto476" to="37602216#4" type="moto_motorcycle" />
    <trip depart="325.39" departLane="best" from="5678756#0" id="moto477" to="-5679171#1" type="moto_motorcycle" />
    <trip depart="327.43" departLane="best" from="5675443" id="moto480" to="222246978" type="moto_motorcycle" />
    <trip depart="328.80" departLane="best" from="221446578#6" id="moto482" to="-221585918#7" type="moto_motorcycle" />
    <trip depart="331.53" departLane="best" from="227064537#0" id="moto486" to="5679758#1" type="moto_motorcycle" />
    <trip depart="338.35" departLane="best" from="250372840#8" id="moto496" to="5680159#9" type="moto_motorcycle" />
    <trip depart="341.08" departLane="best" from="227064534#1" id="moto500" to="-23334074#0" type="moto_motorcycle" />
    <trip depart="344.49" departLane="best" from="5676264" id="moto505" to="479748558#2" type="moto_motorcycle" />
    <trip depart="345.85" departLane="best" from="5676800" id="moto507" to="111781747#5" type="moto_motorcycle" />
    <trip depart="349.26" departLane="best" from="5682164#1" id="moto512" to="5678924#1" type="moto_motorcycle" />
    <trip depart="354.04" departLane="best" from="23334061#6" id="moto519" to="-221759328#2" type="moto_motorcycle" />
    <trip depart="356.76" departLane="best" from="46835354" id="moto523" to="347014804#1" type="moto_motorcycle" />
    <trip depart="358.81" departLane="best" from="222248832#1" id="moto526" to="455211323#0" type="moto_motorcycle" />
    <trip depart="360.86" departLane="best" from="-420880045" id="moto529" to="5681491#2" type="moto_motorcycle" />
    <trip depart="361.54" departLane="best" from="620132897" id="moto530" to="451380982#5" type="moto_motorcycle" />
    <trip depart="363.59" departLane="best" from="23334074#0" id="moto533" to="46835336#23" type="moto_motorcycle" />
    <trip depart="364.95" departLane="best" from="-432554456#1" id="moto535" to="221725599#1" type="moto_motorcycle" />
    <trip depart="365.63" departLane="best" from="-5681577#2" id="moto536" to="221753948#2" type="moto_motorcycle" />
    <trip depart="366.32" departLane="best" from="5678262#8" id="moto537" to="-221777100#3" type="moto_motorcycle" />
    <trip depart="369.04" departLane="best" from="-421149636#1" id="moto541" to="350687715#1" type="moto_motorcycle" />
    <trip depart="370.41" departLane="best" from="5675267#1" id="moto543" to="347014805#1" type="moto_motorcycle" />
    <trip depart="372.45" departLane="best" from="-463957168" id="moto546" to="-222246538#2" type="moto_motorcycle" />
    <trip depart="375.87" departLane="best" from="440633365-AddedOffRampEdge" id="moto551" to="227064513#3" type="moto_motorcycle" />
    <trip depart="378.59" departLane="best" from="5675915#0" id="moto555" to="239626766" type="moto_motorcycle" />
    <trip depart="381.32" departLane="best" from="-46818460#1" id="moto559" to="46835367#2" type="moto_motorcycle" />
    <trip depart="382.69" departLane="best" from="46818904#11" id="moto561" to="-46818904#8" type="moto_motorcycle" />
    <trip depart="383.37" departLane="best" from="46817493#15" id="moto562" to="-46818468#3" type="moto_motorcycle" />
    <trip depart="384.73" departLane="best" from="515885162#4" id="moto564" to="-420318571" type="moto_motorcycle" />
    <trip depart="385.42" departLane="best" from="497257603#10" id="moto565" to="221725601#1" type="moto_motorcycle" />
    <trip depart="386.10" departLane="best" from="-5678101#11" id="moto566" to="5676563" type="moto_motorcycle" />
    <trip depart="386.78" departLane="best" from="5677941#0" id="moto567" to="46863850" type="moto_motorcycle" />
    <trip depart="392.24" departLane="best" from="354928473#0" id="moto575" to="46863844#11" type="moto_motorcycle" />
    <trip depart="392.92" departLane="best" from="5676852#4" id="moto576" to="-625647904#2" type="moto_motorcycle" />
    <trip depart="393.60" departLane="best" from="686370900" id="moto577" to="420346495" type="moto_motorcycle" />
    <trip depart="396.33" departLane="best" from="-334341973#2" id="moto581" to="488941121#0" type="moto_motorcycle" />
    <trip depart="403.15" departLane="best" from="46818904#10" id="moto591" to="46863673#3" type="moto_motorcycle" />
    <trip depart="403.83" departLane="best" from="460584837#7" id="moto592" to="-456244378#0" type="moto_motorcycle" />
    <trip depart="405.88" departLane="best" from="542169859" id="moto595" to="5682175#0" type="moto_motorcycle" />
    <trip depart="408.61" departLane="best" from="-506650490" id="moto599" to="-5707635#0" type="moto_motorcycle" />
    <trip depart="409.29" departLane="best" from="5676262#9" id="moto600" to="5680589#0" type="moto_motorcycle" />
    <trip depart="409.97" departLane="best" from="-5680035#1" id="moto601" to="-420346448#2" type="moto_motorcycle" />
    <trip depart="414.75" departLane="best" from="221585916#7" id="moto608" to="5676234#1" type="moto_motorcycle" />
    <trip depart="416.11" departLane="best" from="46863844#18" id="moto610" to="-524340771#4" type="moto_motorcycle" />
    <trip depart="418.16" departLane="best" from="127739254" id="moto613" to="496980629#1" type="moto_motorcycle" />
    <trip depart="421.57" departLane="best" from="-464551540#3" id="moto618" to="460585585#5" type="moto_motorcycle" />
    <trip depart="422.25" departLane="best" from="39946177-AddedOffRampEdge" id="moto619" to="222247847#1" type="moto_motorcycle" />
    <trip depart="424.98" departLane="best" from="276024637#16" id="moto623" to="-221725601#0" type="moto_motorcycle" />
    <trip depart="428.39" departLane="best" from="530568988#1" id="moto628" to="5678262#17" type="moto_motorcycle" />
    <trip depart="431.12" departLane="best" from="545517874#0" id="moto632" to="5676159#1" type="moto_motorcycle" />
    <trip depart="434.53" departLane="best" from="-221795719#0" id="moto637" to="552015559#0" type="moto_motorcycle" />
    <trip depart="436.58" departLane="best" from="123001156#1" id="moto640" to="460585585#8" type="moto_motorcycle" />
    <trip depart="437.94" departLane="best" from="5675443" id="moto642" to="227064558" type="moto_motorcycle" />
    <trip depart="447.49" departLane="best" from="5676994#2" id="moto656" to="206610786#1" type="moto_motorcycle" />
    <trip depart="448.17" departLane="best" from="154513052" id="moto657" to="-46818905#2" type="moto_motorcycle" />
    <trip depart="449.54" departLane="best" from="227064513#1" id="moto659" to="456391963#2" type="moto_motorcycle" />
    <trip depart="450.90" departLane="best" from="451915591#1" id="moto661" to="148285572#3" type="moto_motorcycle" />
    <trip depart="454.99" departLane="best" from="-334341973#0" id="moto667" to="-5676800" type="moto_motorcycle" />
    <trip depart="455.68" departLane="best" from="123001151#4" id="moto668" to="-451915592" type="moto_motorcycle" />
    <trip depart="463.86" departLane="best" from="221601322#6" id="moto680" to="123001149#1" type="moto_motorcycle" />
    <trip depart="464.54" departLane="best" from="497256597" id="moto681" to="221585911#3" type="moto_motorcycle" />
    <trip depart="466.59" departLane="best" from="46121844#3" id="moto684" to="23168562" type="moto_motorcycle" />
    <trip depart="467.27" departLane="best" from="-183103228" id="moto685" to="308340267#1" type="moto_motorcycle" />
    <trip depart="468.64" departLane="best" from="5677950#2" id="moto687" to="39613244#0" type="moto_motorcycle" />
    <trip depart="469.32" departLane="best" from="460576117" id="moto688" to="347014805#5" type="moto_motorcycle" />
    <trip depart="474.78" departLane="best" from="46774534#3" id="moto696" to="5678115#1" type="moto_motorcycle" />
    <trip depart="481.60" departLane="best" from="475559460#2" id="moto706" to="221570521#3" type="moto_motorcycle" />
    <trip depart="482.96" departLane="best" from="46835336#12" id="moto708" to="46835336#8" type="moto_motorcycle" />
    <trip depart="483.65" departLane="best" from="-40711969" id="moto709" to="23042440#0" type="moto_motorcycle" />
    <trip depart="486.37" departLane="best" from="483140980#1" id="moto713" to="5679918" type="moto_motorcycle" />
    <trip depart="489.10" departLane="best" from="-275389181" id="moto717" to="5680756#1" type="moto_motorcycle" />
    <trip depart="493.20" departLane="best" from="-524340771#0" id="moto723" to="227064522#2" type="moto_motorcycle" />
    <trip depart="496.61" departLane="best" from="23042440#0" id="moto728" to="-447792828#3" type="moto_motorcycle" />
    <trip depart="497.97" departLane="best" from="34452220#2" id="moto730" to="-222248832#2" type="moto_motorcycle" />
    <trip depart="498.65" departLane="best" from="-40785409#1" id="moto731" to="-5682143" type="moto_motorcycle" />
    <trip depart="502.75" departLane="best" from="420346448#2" id="moto737" to="5679762#8" type="moto_motorcycle" />
    <trip depart="504.79" departLane="best" from="206610786#1" id="moto740" to="46818904#12" type="moto_motorcycle" />
    <trip depart="505.47" departLane="best" from="-43242499#4" id="moto741" to="-494221659#6" type="moto_motorcycle" />
    <trip depart="506.16" departLane="best" from="-40416338#0" id="moto742" to="185196951" type="moto_motorcycle" />
    <trip depart="506.84" departLane="best" from="123001149#0" id="moto743" to="451380982#1" type="moto_motorcycle" />
    <trip depart="510.93" departLane="best" from="5676939#0" id="moto749" to="463957168" type="moto_motorcycle" />
    <trip depart="511.61" departLane="best" from="46772625#4" id="moto750" to="5679417#0" type="moto_motorcycle" />
    <trip depart="512.30" departLane="best" from="276024637#13" id="moto751" to="221585916#4" type="moto_motorcycle" />
    <trip depart="515.71" departLane="best" from="5680024#15" id="moto756" to="-46121867#1" type="moto_motorcycle" />
    <trip depart="518.43" departLane="best" from="5676687" id="moto760" to="-471943034#4" type="moto_motorcycle" />
    <trip depart="521.85" departLane="best" from="78288188#3" id="moto765" to="-587355763" type="moto_motorcycle" />
    <trip depart="524.57" departLane="best" from="-452286949#1" id="moto769" to="5676489#14" type="moto_motorcycle" />
    <trip depart="527.30" departLane="best" from="308340267#9" id="moto773" to="-227074775#1" type="moto_motorcycle" />
    <trip depart="527.98" departLane="best" from="440633382#1" id="moto774" to="221777109#9" type="moto_motorcycle" />
    <trip depart="528.67" departLane="best" from="221777109#15" id="moto775" to="5678215#10" type="moto_motorcycle" />
    <trip depart="531.40" departLane="best" from="5682184#8" id="moto779" to="5675607" type="moto_motorcycle" />
    <trip depart="534.12" departLane="best" from="227074765#1" id="moto783" to="-221725599#0" type="moto_motorcycle" />
    <trip depart="535.49" departLane="best" from="497561531#1" id="moto785" to="5680167#9" type="moto_motorcycle" />
    <trip depart="536.85" departLane="best" from="227074781#1" id="moto787" to="37434658#4" type="moto_motorcycle" />
    <trip depart="537.53" departLane="best" from="460569807#1" id="moto788" to="451380982#6" type="moto_motorcycle" />
    <trip depart="539.58" departLane="best" from="221585918#6" id="moto791" to="46786525" type="moto_motorcycle" />
    <trip depart="541.63" departLane="best" from="-68523765#4" id="moto794" to="488941121#2" type="moto_motorcycle" />
    <trip depart="545.72" departLane="best" from="37394899#0" id="moto800" to="-46121867#1" type="moto_motorcycle" />
    <trip depart="546.40" departLane="best" from="-587067521" id="moto801" to="5678784#18" type="moto_motorcycle" />
    <trip depart="549.13" departLane="best" from="97010373#1" id="moto805" to="5680419#1" type="moto_motorcycle" />
    <trip depart="552.54" departLane="best" from="451910413#0" id="moto810" to="5680803#1" type="moto_motorcycle" />
    <trip depart="554.59" departLane="best" from="-483140980#0" id="moto813" to="460584837#7" type="moto_motorcycle" />
    <trip depart="559.36" departLane="best" from="421116787#3" id="moto820" to="420318579" type="moto_motorcycle" />
    <trip depart="560.05" departLane="best" from="-46818468#5" id="moto821" to="452280723" type="moto_motorcycle" />
    <trip depart="560.73" departLane="best" from="46772625#2" id="moto822" to="421116791" type="moto_motorcycle" />
    <trip depart="562.09" departLane="best" from="221753949#1" id="moto824" to="-221585916#7" type="moto_motorcycle" />
    <trip depart="566.19" departLane="best" from="221696386#2" id="moto830" to="5678442#4" type="moto_motorcycle" />
    <trip depart="568.23" departLane="best" from="-46863691#1" id="moto833" to="440633404#1" type="moto_motorcycle" />
    <trip depart="568.91" departLane="best" from="-432552981#0" id="moto834" to="5680992#8" type="moto_motorcycle" />
    <trip depart="570.96" departLane="best" from="219964428#8" id="moto837" to="-221725602#3" type="moto_motorcycle" />
    <trip depart="575.05" departLane="best" from="451380996#0" id="moto843" to="524340776#9" type="moto_motorcycle" />
    <trip depart="577.10" departLane="best" from="456407470" id="moto846" to="641437652#2" type="moto_motorcycle" />
    <trip depart="581.87" departLane="best" from="-451413253#3" id="moto853" to="-5678246#2" type="moto_motorcycle" />
    <trip depart="583.24" departLane="best" from="-23334074#0" id="moto855" to="5677903#0" type="moto_motorcycle" />
    <trip depart="584.60" departLane="best" from="46819907" id="moto857" to="451934311" type="moto_motorcycle" />
    <trip depart="588.70" departLane="best" from="46863844#16" id="moto863" to="5677112#6" type="moto_motorcycle" />
    <trip depart="593.47" departLane="best" from="183916203#1" id="moto870" to="46137501#1" type="moto_motorcycle" />
    <trip depart="595.52" departLane="best" from="5680220#1" id="moto873" to="46121876" type="moto_motorcycle" />
    <trip depart="596.20" departLane="best" from="227064513#2" id="moto874" to="525646871#0" type="moto_motorcycle" />
    <trip depart="596.88" departLane="best" from="5680972#2" id="moto875" to="-432552966#0" type="moto_motorcycle" />
    <trip depart="597.56" departLane="best" from="34287042#2" id="moto876" to="221696378#0" type="moto_motorcycle" />
    <trip depart="598.93" departLane="best" from="5682012#2" id="moto878" to="-5679879" type="moto_motorcycle" />
    <trip depart="602.34" departLane="best" from="151471700" id="moto883" to="-221586643#0" type="moto_motorcycle" />
    <trip depart="605.75" departLane="best" from="-46818460#1" id="moto888" to="5681078" type="moto_motorcycle" />
    <trip depart="610.53" departLane="best" from="5675664#0" id="moto895" to="296910902#1" type="moto_motorcycle" />
    <trip depart="613.94" departLane="best" from="-46818905#2" id="moto900" to="-5677459" type="moto_motorcycle" />
    <trip depart="617.35" departLane="best" from="-111781747#7" id="moto905" to="420346478#0" type="moto_motorcycle" />
    <trip depart="622.12" departLane="best" from="46835336#9" id="moto912" to="221759318#0" type="moto_motorcycle" />
    <trip depart="623.49" departLane="best" from="-432552970#1" id="moto914" to="37624370#1" type="moto_motorcycle" />
    <trip depart="624.17" departLane="best" from="5677430#1" id="moto915" to="227064556#0" type="moto_motorcycle" />
    <trip depart="625.53" departLane="best" from="5680880#1" id="moto917" to="420584215" type="moto_motorcycle" />
    <trip depart="626.21" departLane="best" from="-46772625#3" id="moto918" to="221583042#4" type="moto_motorcycle" />
    <trip depart="627.58" departLane="best" from="654744285#1" id="moto920" to="222246543#3" type="moto_motorcycle" />
    <trip depart="630.99" departLane="best" from="46121850#2" id="moto925" to="-460581660#5" type="moto_motorcycle" />
    <trip depart="633.04" departLane="best" from="-463957168" id="moto928" to="-222248832#2" type="moto_motorcycle" />
    <trip depart="633.72" departLane="best" from="46863844#19" id="moto929" to="496995106" type="moto_motorcycle" />
    <trip depart="634.40" departLane="best" from="420583318#1" id="moto930" to="221759322#2" type="moto_motorcycle" />
    <trip depart="636.45" departLane="best" from="-682886115#1" id="moto933" to="586174692" type="moto_motorcycle" />