<routes xmlns:xsi="http://www.w3.org/2001/XMLSchema-instance" xsi:noNamespaceSchemaLocation="http://sumo.dlr.de/xsd/routes_file.xsd">
    <vType id="veh_passenger" vClass="passenger">
    </vType>
    <trip depart="0.43" departLane="best" from="123001156#0" id="veh1" to="122660451" type="veh_passenger" />
    <trip depart="0.87" departLane="best" from="5674356" id="veh2" to="495491358#2" type="veh_passenger" />
    <trip depart="2.60" departLane="best" from="-221586639#2" id="veh6" to="-639763613#1" type="veh_passenger" />
    <trip depart="3.04" departLane="best" from="46835354" id="veh7" to="460576121" type="veh_passenger" />
    <trip depart="4.34" departLane="best" from="5677924" id="veh10" to="51980526#2" type="veh_passenger" />
    <trip depart="4.78" departLane="best" from="221696386#9" id="veh11" to="-5678101#7" type="veh_passenger" />
    <trip depart="6.08" departLane="best" from="5678784#10" id="veh14" to="46818904#15" type="veh_passenger" />
    <trip depart="13.89" departLane="best" from="5678649" id="veh32" to="5677397#9" type="veh_passenger" />
    <trip depart="14.33" departLane="best" from="-5681884" id="veh33" to="-221759317#1" type="veh_passenger" />
    <trip depart="16.06" departLane="best" from="46838317#1" id="veh37" to="274894225" type="veh_passenger" />
    <trip depart="19.97" departLane="best" from="5677340#3" id="veh46" to="308340267#6" type="veh_passenger" />
    <trip depart="20.40" departLane="best" from="-227074810" id="veh47" to="239626766" type="veh_passenger" />
    <trip depart="21.70" departLane="best" from="-185196951" id="veh50" to="5675082#0" type="veh_passenger" />
    <trip depart="22.14" departLane="best" from="479748558#1" id="veh51" to="451915593#1" type="veh_passenger" />
    <trip depart="23.01" departLane="best" from="-421118181#1" id="veh53" to="347014806#2" type="veh_passenger" />
    <trip depart="28.22" departLane="best" from="221585906#1" id="veh65" to="-239626767#1" type="veh_passenger" />
    <trip depart="28.65" departLane="best" from="5679904#6" id="veh66" to="5710128#0" type="veh_passenger" />
    <trip depart="30.82" departLane="best" from="110155730#2" id="veh71" to="5680159#3" type="veh_passenger" />
    <trip depart="31.69" departLane="best" from="421118179" id="veh73" to="5675915#4" type="veh_passenger" />
    <trip depart="33.86" departLane="best" from="221696386#10" id="veh78" to="46788750" type="veh_passenger" />
    <trip depart="36.90" departLane="best" from="5681691#0" id="veh85" to="463957168" type="veh_passenger" />
    <trip depart="37.33" departLane="best" from="349369490" id="veh86" to="5677585#1" type="veh_passenger" />
    <trip depart="39.07" departLane="best" from="542169856#12" id="veh90" to="494221659#8" type="veh_passenger" />
    <trip depart="40.37" departLane="best" from="5679567" id="veh93" to="206610786#4" type="veh_passenger" />
    <trip depart="40.81" departLane="best" from="-5678101#0" id="veh94" to="37523639" type="veh_passenger" />
    <trip depart="43.84" departLane="best" from="5678784#18" id="veh101" to="-5678919#1" type="veh_passenger" />
    <trip depart="44.28" departLane="best" from="38341528#4" id="veh102" to="108166470" type="veh_passenger" />
    <trip depart="44.71" departLane="best" from="227074781#7" id="veh103" to="-239626769#3" type="veh_passenger" />
    <trip depart="46.01" departLane="best" from="308340267#7" id="veh106" to="315569174" type="veh_passenger" />
    <trip depart="48.62" departLane="best" from="-227074781#1" id="veh112" to="46788735" type="veh_passenger" />
    <trip depart="49.92" departLane="best" from="-315569176#0" id="veh115" to="-5681577#3" type="veh_passenger" />
    <trip depart="51.22" departLane="best" from="5680167#4" id="veh118" to="204842637#0" type="veh_passenger" />
    <trip depart="51.66" departLane="best" from="46121853#1" id="veh119" to="46835349#6" type="veh_passenger" />
    <trip depart="52.96" departLane="best" from="-5678889#1" id="veh122" to="552015559#1" type="veh_passenger" />
    <trip depart="53.39" departLane="best" from="-573838648" id="veh123" to="27524495" type="veh_passenger" />
    <trip depart="53.83" departLane="best" from="46865765#4" id="veh124" to="221731898#0" type="veh_passenger" />
    <trip depart="55.56" departLane="best" from="-239626769#2" id="veh128" to="108166470" type="veh_passenger" />
    <trip depart="57.73" departLane="best" from="46786494" id="veh133" to="660084150#2" type="veh_passenger" />
    <trip depart="64.25" departLane="best" from="-25198746#0" id="veh148" to="5680476#2" type="veh_passenger" />
    <trip depart="65.98" departLane="best" from="5677438#1" id="veh152" to="5679887#2" type="veh_passenger" />
    <trip depart="68.15" departLane="best" from="-46835364" id="veh157" to="5681787#0" type="veh_passenger" />
    <trip depart="69.46" departLane="best" from="-221585918#12" id="veh160" to="5676262#7" type="veh_passenger" />
    <trip depart="69.89" departLane="best" from="221607366#0" id="veh161" to="5681884" type="veh_passenger" />
    <trip depart="70.32" departLane="best" from="5677620#1" id="veh162" to="5679904#4" type="veh_passenger" />
    <trip depart="71.63" departLane="best" from="-5680852" id="veh165" to="5678384#2" type="veh_passenger" />
    <trip depart="73.36" departLane="best" from="221601322#9" id="veh169" to="5679904#6" type="veh_passenger" />
    <trip depart="74.23" departLane="best" from="46835336#10" id="veh171" to="275303303#0" type="veh_passenger" />
    <trip depart="74.66" departLane="best" from="654744279" id="veh172" to="451915591#2" type="veh_passenger" />
    <trip depart="75.10" departLane="best" from="5681940#0" id="veh173" to="-46818904#12" type="veh_passenger" />
    <trip depart="75.97" departLane="best" from="587355778#1" id="veh175" to="221585914#10" type="veh_passenger" />
    <trip depart="76.40" departLane="best" from="-420875713#1" id="veh176" to="347014806#1" type="veh_passenger" />
    <trip depart="78.14" departLane="best" from="-658936644#16" id="veh180" to="535252372#3" type="veh_passenger" />
    <trip depart="78.57" departLane="best" from="-111781747#1" id="veh181" to="5681577#0" type="veh_passenger" />
    <trip depart="79.01" departLane="best" from="421116795#1" id="veh182" to="5674509" type="veh_passenger" />
    <trip depart="81.61" departLane="best" from="221585908#1" id="veh188" to="276050436" type="veh_passenger" />
    <trip depart="82.04" departLane="best" from="227074786#5" id="veh189" to="221696386#2" type="veh_passenger" />
    <trip depart="85.08" departLane="best" from="46835402#1" id="veh196" to="40712688#4" type="veh_passenger" />
    <trip depart="87.25" departLane="best" from="46818904#14" id="veh201" to="222258273#2" type="veh_passenger" />
    <trip depart="89.42" departLane="best" from="5678784#23" id="veh206" to="-420317203" type="veh_passenger" />
    <trip depart="90.29" departLane="best" from="-5678246#4" id="veh208" to="515885162#3" type="veh_passenger" />
    <trip depart="95.94" departLane="best" from="5678278" id="veh221" to="460584837#7" type="veh_passenger" />
    <trip depart="102.01" departLane="best" from="460584836#1" id="veh235" to="515885152#3" type="veh_passenger" />
    <trip depart="103.75" departLane="best" from="5678929#0" id="veh239" to="573632388" type="veh_passenger" />
    <trip depart="106.35" departLane="best" from="227074794#0" id="veh245" to="-5678419" type="veh_passenger" />
    <trip depart="108.09" departLane="best" from="-221586639#2" id="veh249" to="46863844#18" type="veh_passenger" />
    <trip depart="108.96" departLane="best" from="-226998579" id="veh251" to="23334073" type="veh_passenger" />
    <trip depart="111.56" departLane="best" from="97010425#2" id="veh257" to="227064551#0" type="veh_passenger" />
    <trip depart="113.30" departLane="best" from="-221585908#5" id="veh261" to="-5677695#1" type="veh_passenger" />
    <trip depart="118.51" departLane="best" from="-420346497" id="veh273" to="5677338" type="veh_passenger" />
    <trip depart="119.38" departLane="best" from="-432554453#9" id="veh275" to="658936639#0" type="veh_passenger" />
    <trip depart="120.24" departLane="best" from="275303293#0" id="veh277" to="23168562" type="veh_passenger" />
    <trip depart="122.42" departLane="best" from="497258460#0" id="veh282" to="347309380#2" type="veh_passenger" />
    <trip depart="122.85" departLane="best" from="557041245" id="veh283" to="587355778#0" type="veh_passenger" />
    <trip depart="124.15" departLane="best" from="276024637#23" id="veh286" to="5675937" type="veh_passenger" />
    <trip depart="125.02" departLane="best" from="5678278" id="veh288" to="-43242499#0" type="veh_passenger" />
    <trip depart="125.45" departLane="best" from="5680024#2" id="veh289" to="183916221#4" type="veh_passenger" />
    <trip depart="125.89" departLane="best" from="343990838#0" id="veh290" to="46820403#3" type="veh_passenger" />
    <trip depart="127.62" departLane="best" from="221696387" id="veh294" to="5680429#1" type="veh_passenger" />
    <trip depart="129.36" departLane="best" from="489437292#11" id="veh298" to="46863850" type="veh_passenger" />
    <trip depart="130.23" departLane="best" from="-40416338#1" id="veh300" to="122660423#0" type="veh_passenger" />
    <trip depart="131.10" departLane="best" from="460569807#1" id="veh302" to="420304917" type="veh_passenger" />
    <trip depart="131.53" departLane="best" from="420880045" id="veh303" to="334262992#1" type="veh_passenger" />
    <trip depart="131.97" departLane="best" from="5675573#9" id="veh304" to="222248831#0" type="veh_passenger" />
    <trip depart="133.27" departLane="best" from="420886411" id="veh307" to="5677037#36" type="veh_passenger" />
    <trip depart="135.00" departLane="best" from="151472137" id="veh311" to="-460569807#0" type="veh_passenger" />
    <trip depart="136.31" departLane="best" from="420883010" id="veh314" to="221586637" type="veh_passenger" />
    <trip depart="138.04" departLane="best" from="347014805#2" id="veh318" to="354926644#2" type="veh_passenger" />
    <trip depart="140.21" departLane="best" from="-227064558" id="veh323" to="-5676937" type="veh_passenger" />
    <trip depart="141.95" departLane="best" from="5677167#1" id="veh327" to="123001151#3" type="veh_passenger" />
    <trip depart="142.38" departLane="best" from="420571192" id="veh328" to="37793000#2" type="veh_passenger" />
    <trip depart="144.12" departLane="best" from="5674971#0" id="veh332" to="5710128#5" type="veh_passenger" />
    <trip depart="147.16" departLane="best" from="497257603#12" id="veh339" to="38341528#3" type="veh_passenger" />
    <trip depart="148.46" departLane="best" from="46863673#1" id="veh342" to="5682006" type="veh_passenger" />
    <trip depart="150.20" departLane="best" from="-494221659#7" id="veh346" to="221759320#33" type="veh_passenger" />
    <trip depart="151.93" departLane="best" from="5682164#3" id="veh350" to="420883008#0" type="veh_passenger" />
    <trip depart="154.10" departLane="best" from="5678409" id="veh355" to="464551540#2" type="veh_passenger" />
    <trip depart="156.71" departLane="best" from="460584837#5" id="veh361" to="46846378#1" type="veh_passenger" />
    <trip depart="157.58" departLane="best" from="221753942#0" id="veh363" to="222254953" type="veh_passenger" />
    <trip depart="160.18" departLane="best" from="221586644" id="veh369" to="619552358" type="veh_passenger" />
    <trip depart="161.05" departLane="best" from="680830264#0" id="veh371" to="479748558#1" type="veh_passenger" />
    <trip depart="164.96" departLane="best" from="-46863774#2" id="veh380" to="460779250#14" type="veh_passenger" />
    <trip depart="167.56" departLane="best" from="123001149#5" id="veh386" to="5678924#0" type="veh_passenger" />
    <trip depart="169.30" departLane="best" from="5679924" id="veh390" to="5679904#4" type="veh_passenger" />
    <trip depart="171.03" departLane="best" from="151471702#0" id="veh394" to="221725599#1" type="veh_passenger" />
    <trip depart="171.47" departLane="best" from="460585585#2" id="veh395" to="97010373#0" type="veh_passenger" />
    <trip depart="174.51" departLane="best" from="5676939#3" id="veh402" to="-227064529#0" type="veh_passenger" />
    <trip depart="175.81" departLane="best" from="46863840#2" id="veh405" to="5678442#20" type="veh_passenger" />
    <trip depart="176.68" departLane="best" from="-221753948#1" id="veh407" to="420886403" type="veh_passenger" />
    <trip depart="177.98" departLane="best" from="420584210" id="veh410" to="39974308#1-AddedOnRampEdge" type="veh_passenger" />
    <trip depart="181.45" departLane="best" from="524340776#2" id="veh418" to="5677037#19" type="veh_passenger" />
    <trip depart="181.89" departLane="best" from="5679875#1" id="veh419" to="-221777103" type="veh_passenger" />
    <trip depart="182.75" departLane="best" from="5681030#6" id="veh421" to="68523779#0" type="veh_passenger" />
    <trip depart="184.49" departLane="best" from="495315400" id="veh425" to="5680880#4" type="veh_passenger" />
    <trip depart="184.92" departLane="best" from="-222246979" id="veh426" to="5677949#9" type="veh_passenger" />
    <trip depart="187.10" departLane="best" from="5679854#13" id="veh431" to="46835350#1-AddedOffRampEdge" type="veh_passenger" />
    <trip depart="189.27" departLane="best" from="5680551#0" id="veh436" to="495491358#2" type="veh_passenger" />
    <trip depart="189.70" departLane="best" from="-46863774#2" id="veh437" to="360608776" type="veh_passenger" />
    <trip depart="194.48" departLane="best" from="-222258273#5" id="veh448" to="46818905#5" type="veh_passenger" />
    <trip depart="198.82" departLane="best" from="545291572#1" id="veh458" to="-432552977" type="veh_passenger" />
    <trip depart="200.55" departLane="best" from="420880044" id="veh462" to="5681045#1" type="veh_passenger" />
    <trip depart="203.59" departLane="best" from="530568998#3" id="veh469" to="654744274#0" type="veh_passenger" />
    <trip depart="204.03" departLane="best" from="620132897" id="veh470" to="5678215#12" type="veh_passenger" />
    <trip depart="210.10" departLane="best" from="-420304917" id="veh484" to="5680637#0" type="veh_passenger" />
    <trip depart="214.44" departLane="best" from="-420317206" id="veh494" to="497257926#0" type="veh_passenger" />
    <trip depart="217.05" departLane="best" from="46121873#1" id="veh500" to="-221585916#3" type="veh_passenger" />
    <trip depart="217.48" departLane="best" from="5677047" id="veh501" to="183916221#2" type="veh_passenger" />
    <trip depart="218.35" departLane="best" from="-232270200#4" id="veh503" to="5677112#1" type="veh_passenger" />
    <trip depart="218.78" departLane="best" from="-5679171#11" id="veh504" to="110277551#2" type="veh_passenger" />
    <trip depart="219.22" departLane="best" from="5679829" id="veh505" to="222246979" type="veh_passenger" />
    <trip depart="220.09" departLane="best" from="-111781747#6" id="veh507" to="5679854#11" type="veh_passenger" />
    <trip depart="221.39" departLane="best" from="46863673#0" id="veh510" to="-221604537#1" type="veh_passenger" />
    <trip depart="223.56" departLane="best" from="5675573#7" id="veh515" to="420318579" type="veh_passenger" />
    <trip depart="225.73" departLane="best" from="420571183" id="veh520" to="40174799" type="veh_passenger" />
    <trip depart="229.64" departLane="best" from="420880042#0" id="veh529" to="38341528#1" type="veh_passenger" />
    <trip depart="233.98" departLane="best" from="5681170#0" id="veh539" to="-37394899#3" type="veh_passenger" />
    <trip depart="234.41" departLane="best" from="5678366#0" id="veh540" to="-432554456#0" type="veh_passenger" />
    <trip depart="235.28" departLane="best" from="5677949#6" id="veh542" to="46121844#1" type="veh_passenger" />
    <trip depart="236.58" departLane="best" from="221759320#30" id="veh545" to="483704094#29" type="veh_passenger" />
    <trip depart="239.62" departLane="best" from="222246285#2" id="veh552" to="5677037#38" type="veh_passenger" />
    <trip depart="240.06" departLane="best" from="451915591#3" id="veh553" to="5678246#3" type="veh_passenger" />
    <trip depart="243.53" departLane="best" from="5679842" id="veh561" to="46179210" type="veh_passenger" />
    <trip depart="243.96" departLane="best" from="227074781#5" id="veh562" to="-5674982" type="veh_passenger" />
    <trip depart="244.83" departLane="best" from="5675586" id="veh564" to="110155732" type="veh_passenger" />
    <trip depart="246.57" departLane="best" from="-360608776" id="veh568" to="-227074786#9" type="veh_passenger" />
    <trip depart="247.00" departLane="best" from="-46863774#2" id="veh569" to="46835346" type="veh_passenger" />
    <trip depart="247.43" departLane="best" from="471943031#0" id="veh570" to="221585917#2" type="veh_passenger" />
    <trip depart="248.74" departLane="best" from="5676262#0" id="veh573" to="-46818468#7" type="veh_passenger" />
    <trip depart="249.61" departLane="best" from="475559459#7" id="veh575" to="420567576" type="veh_passenger" />
    <trip depart="252.64" departLane="best" from="-506650490" id="veh582" to="23334091#3" type="veh_passenger" />
    <trip depart="253.95" departLane="best" from="-239626766" id="veh585" to="5679892#4" type="veh_passenger" />
    <trip depart="258.72" departLane="best" from="227074768" id="veh596" to="221759325#1" type="veh_passenger" />
    <trip depart="259.16" departLane="best" from="221696386#4" id="veh597" to="222254952#0" type="veh_passenger" />
    <trip depart="262.63" departLane="best" from="46838317#1" id="veh605" to="-5680476#6" type="veh_passenger" />
    <trip depart="264.36" departLane="best" from="451380982#6" id="veh609" to="46846378#1" type="veh_passenger" />
    <trip depart="265.23" departLane="best" from="46818457-AddedOnRampEdge" id="veh611" to="-5676939#3" type="veh_passenger" />
    <trip depart="266.10" departLane="best" from="221570521#4" id="veh613" to="221586638#1" type="veh_passenger" />
    <trip depart="269.57" departLane="best" from="5680442#1" id="veh621" to="37602216#3" type="veh_passenger" />
    <trip depart="270.01" departLane="best" from="5677949#20" id="veh622" to="471943034#0" type="veh_passenger" />
    <trip depart="272.18" departLane="best" from="420315112" id="veh627" to="-5679879" type="veh_passenger" />
    <trip depart="273.91" departLane="best" from="151471702#0" id="veh631" to="276055771" type="veh_passenger" />
    <trip depart="276.52" departLane="best" from="5680703#3" id="veh637" to="5680159#9" type="veh_passenger" />
    <trip depart="276.95" departLane="best" from="221688254" id="veh638" to="46786512" type="veh_passenger" />
    <trip depart="277.39" departLane="best" from="-46772625#4" id="veh639" to="227064540#1" type="veh_passenger" />
    <trip depart="278.26" departLane="best" from="227064540#0" id="veh641" to="46818452#1" type="veh_passenger" />
    <trip depart="280.86" departLane="best" from="46835341#0" id="veh647" to="315569175#1" type="veh_passenger" />
    <trip depart="282.60" departLane="best" from="-5681547#1" id="veh651" to="-526209963#1" type="veh_passenger" />
    <trip depart="284.77" departLane="best" from="5676708#6" id="veh656" to="-497253780#6" type="veh_passenger" />
    <trip depart="287.81" departLane="best" from="5675784#4" id="veh663" to="37575728#1" type="veh_passenger" />
    <trip depart="288.67" departLane="best" from="5677949#13" id="veh665" to="41381890#1" type="veh_passenger" />
    <trip depart="289.54" departLane="best" from="5682184#8" id="veh667" to="658936642#2" type="veh_passenger" />
    <trip depart="291.28" departLane="best" from="5677585#5" id="veh671" to="-526209963#1" type="veh_passenger" />
    <trip depart="293.45" departLane="best" from="5676656#0" id="veh676" to="221585918#11" type="veh_passenger" />
    <trip depart="293.88" departLane="best" from="5680646" id="veh677" to="-5676712" type="veh_passenger" />
    <trip depart="295.19" departLane="best" from="221753949#1" id="veh680" to="-221688754#2" type="veh_passenger" />
    <trip depart="296.05" departLane="best" from="-573626193" id="veh682" to="68523758" type="veh_passenger" />
    <trip depart="296.92" departLane="best" from="5681395#1" id="veh684" to="5679109#0" type="veh_passenger" />
    <trip depart="306.04" departLane="best" from="680830264#0" id="veh705" to="461075409#2" type="veh_passenger" />
    <trip depart="306.91" departLane="best" from="46818905#4" id="veh707" to="654744274#6" type="veh_passenger" />
    <trip depart="307.34" departLane="best" from="-658936639#0" id="veh708" to="-219964428#5" type="veh_passenger" />
    <trip depart="310.81" departLane="best" from="46818902#1" id="veh716" to="5678262#3" type="veh_passenger" />
    <trip depart="311.68" departLane="best" from="315569175#2" id="veh718" to="221696380#0" type="veh_passenger" />
    <trip depart="312.98" departLane="best" from="420346485" id="veh721" to="680830519" type="veh_passenger" />
    <trip depart="315.15" departLane="best" from="-451413253#0" id="veh726" to="23042440#0" type="veh_passenger" />
    <trip depart="321.67" departLane="best" from="654744274#1" id="veh741" to="5710128#6" type="veh_passenger" />
    <trip depart="323.84" departLane="best" from="5677037#11" id="veh746" to="-221777100#2" type="veh_passenger" />
    <trip depart="324.27" departLane="best" from="-232270200#2" id="veh747" to="5677438#1" type="veh_passenger" />
    <trip depart="326.01" departLane="best" from="222246544#0" id="veh751" to="5677037#38" type="veh_passenger" />
    <trip depart="329.04" departLane="best" from="280122809#3" id="veh758" to="68523771" type="veh_passenger" />
    <trip depart="331.65" departLane="best" from="5678756#3" id="veh764" to="221777109#20" type="veh_passenger" />
    <trip depart="332.52" departLane="best" from="421752007" id="veh766" to="5680703#6" type="veh_passenger" />
    <trip depart="333.39" departLane="best" from="5681263#1" id="veh768" to="46863673#3" type="veh_passenger" />
    <trip depart="336.86" departLane="best" from="97010425#0" id="veh776" to="5674502#1" type="veh_passenger" />
    <trip depart="341.63" departLane="best" from="221586638#9" id="veh787" to="535252384" type="veh_passenger" />
    <trip depart="342.50" departLane="best" from="5680419#3" id="veh789" to="5679485#1" type="veh_passenger" />
    <trip depart="343.37" departLane="best" from="432554453#2" id="veh791" to="-471943031#0" type="veh_passenger" />
    <trip depart="343.80" departLane="best" from="221570521#4" id="veh792" to="451910414#0" type="veh_passenger" />
    <trip depart="344.67" departLane="best" from="5682056#2" id="veh794" to="-5678101#14" type="veh_passenger" />
    <trip depart="346.84" departLane="best" from="46835336#10" id="veh799" to="46772625#3" type="veh_passenger" />
    <trip depart="347.28" departLane="best" from="46835363#2" id="veh800" to="5677112#6" type="veh_passenger" />
    <trip depart="347.71" departLane="best" from="239625023" id="veh801" to="46863774#0" type="veh_passenger" />
    <trip depart="348.15" departLane="best" from="40879226#0" id="veh802" to="46835370#1" type="veh_passenger" />
    <trip depart="350.75" departLane="best" from="-5678753" id="veh808" to="46818905#6" type="veh_passenger" />
    <trip depart="352.05" departLane="best" from="639118784#0" id="veh811" to="-497253780#5" type="veh_passenger" />
    <trip depart="352.92" departLane="best" from="221585918#11" id="veh813" to="40785409#2" type="veh_passenger" />
    <trip depart="353.35" departLane="best" from="111781747#11" id="veh814" to="206610786#15" type="veh_passenger" />
    <trip depart="356.39" departLane="best" from="420346480#1" id="veh821" to="420880629" type="veh_passenger" />
    <trip depart="359.00" departLane="best" from="46835402#0" id="veh827" to="420304910#1" type="veh_passenger" />
    <trip depart="359.87" departLane="best" from="275391269" id="veh829" to="5680442#8" type="veh_passenger" />
    <trip depart="361.17" departLane="best" from="451910413#4" id="veh832" to="-59707790" type="veh_passenger" />
    <trip depart="362.47" departLane="best" from="148285572#1" id="veh835" to="680830519" type="veh_passenger" />
    <trip depart="364.64" departLane="best" from="-5678262#5" id="veh840" to="421755066" type="veh_passenger" />
    <trip depart="365.07" departLane="best" from="409285510#4" id="veh841" to="-227064556#2" type="veh_passenger" />
    <trip depart="366.38" departLane="best" from="46772621" id="veh844" to="432554453#1" type="veh_passenger" />
    <trip depart="368.11" departLane="best" from="221696378#0" id="veh848" to="5678756#6" type="veh_passenger" />
    <trip depart="368.98" departLane="best" from="221446578#0" id="veh850" to="5678377" type="veh_passenger" />
    <trip depart="369.42" departLane="best" from="222246286#5" id="veh851" to="494221659#8" type="veh_passenger" />
    <trip depart="369.85" departLane="best" from="654744274#0" id="veh852" to="46786522" type="veh_passenger" />
    <trip depart="371.59" departLane="best" from="5677037#20" id="veh856" to="5677430#0" type="veh_passenger" />
    <trip depart="372.02" departLane="best" from="455201237#1" id="veh857" to="5675157#1" type="veh_passenger" />
    <trip depart="372.89" departLane="best" from="46818468#4" id="veh859" to="46835350#1-AddedOffRampEdge" type="veh_passenger" />
    <trip depart="374.19" departLane="best" from="5702460#0" id="veh862" to="-46772884" type="veh_passenger" />
    <trip depart="377.66" departLane="best" from="420584207" id="veh870" to="221759333#1" type="veh_passenger" />
    <trip depart="385.48" departLane="best" from="276083330#0" id="veh888" to="221583036#2" type="veh_passenger" />
    <trip depart="388.95" departLane="best" from="524340771#2" id="veh896" to="-460569807#0" type="veh_passenger" />
    <trip depart="389.82" departLane="best" from="432554453#10" id="veh898" to="5681691#2" type="veh_passenger" />
    <trip depart="392.42" departLane="best" from="451915591#3" id="veh904" to="451910414#9" type="veh_passenger" />
    <trip depart="395.90" departLane="best" from="-183916201" id="veh912" to="46186480" type="veh_passenger" />
    <trip depart="396.33" departLane="best" from="-420584211" id="veh913" to="658936633#2" type="veh_passenger" />
    <trip depart="398.07" departLane="best" from="34593472#8" id="veh917" to="-587355764#1" type="veh_passenger" />
    <trip depart="403.28" departLane="best" from="5676234#5" id="veh929" to="573632388" type="veh_passenger" />
    <trip depart="404.14" departLane="best" from="-185196951" id="veh931" to="475559459#2" type="veh_passenger" />
    <trip depart="405.88" departLane="best" from="5680420#1" id="veh935" to="530568988#1" type="veh_passenger" />
    <trip depart="406.31" departLane="best" from="221585911#3" id="veh936" to="-46818904#7" type="veh_passenger" />
    <trip depart="411.09" departLane="best" from="-295384457#0" id="veh947" to="46137554#0" type="veh_passenger" />
    <trip depart="412.39" departLane="best" from="-46818902#1" id="veh950" to="222246979" type="veh_passenger" />
    <trip depart="413.69" departLane="best" from="-39612790#0" id="veh953" to="43242499#1" type="veh_passenger" />
    <trip depart="415.43" departLane="best" from="5677926#8" id="veh957" to="5675271#4" type="veh_passenger" />
    <trip depart="416.73" departLane="best" from="-222246979" id="veh960" to="227064523#3" type="veh_passenger" />
    <trip depart="418.03" departLane="best" from="5681577#0" id="veh963" to="-221753950" type="veh_passenger" />
    <trip depart="421.94" departLane="best" from="-525679230#6" id="veh972" to="451915594#0" type="veh_passenger" />
    <trip depart="424.11" departLane="best" from="420880629" id="veh977" to="5678442#7" type="veh_passenger" />
    <trip depart="424.55" departLane="best" from="-625647904#2" id="veh978" to="227064531#2" type="veh_passenger" />
    <trip depart="426.72" departLane="best" from="-420346447#1" id="veh983" to="-221759328#2" type="veh_passenger" />
    <trip depart="431.93" departLane="best" from="-227074786#15" id="veh995" to="5710128#6" type="veh_passenger" />
    <trip depart="432.79" departLane="best" from="46817513#0" id="veh997" to="34287042#0" type="veh_passenger" />
    <trip depart="434.96" departLane="best" from="222254951#0" id="veh1002" to="5676994#10" type="veh_passenger" />
    <trip depart="435.40" departLane="best" from="351479503#1" id="veh1003" to="5679708#19" type="veh_passenger" />
    <trip depart="438.87" departLane="best" from="530569001#0" id="veh1011" to="-586174692" type="veh_passenger" />
    <trip depart="439.31" departLane="best" from="111781747#7" id="veh1012" to="494221659#8" type="veh_passenger" />
    <trip depart="440.61" departLane="best" from="530568998#3" id="veh1015" to="46121848#5" type="veh_passenger" />
    <trip depart="441.91" departLane="best" from="-219964428#15" id="veh1018" to="5682164#2" type="veh_passenger" />
    <trip depart="442.78" departLane="best" from="97010425#0" id="veh1020" to="420319834#1" type="veh_passenger" />
    <trip depart="443.65" departLane="best" from="-5678892" id="veh1022" to="5681170#1" type="veh_passenger" />
    <trip depart="444.08" departLane="best" from="43314968#1" id="veh1023" to="5677397#9" type="veh_passenger" />
    <trip depart="444.95" departLane="best" from="221777100#10" id="veh1025" to="221585908#0" type="veh_passenger" />
    <trip depart="445.38" departLane="best" from="420346457" id="veh1026" to="420880041" type="veh_passenger" />
    <trip depart="446.68" departLane="best" from="5680880#4" id="veh1029" to="23168562" type="veh_passenger" />
    <trip depart="447.12" departLane="best" from="23334065#2" id="veh1030" to="46121876" type="veh_passenger" />
    <trip depart="447.55" departLane="best" from="-5680852" id="veh1031" to="-5676705" type="veh_passenger" />
    <trip depart="455.37" departLane="best" from="-183916201" id="veh1049" to="421118178#0" type="veh_passenger" />
    <trip depart="455.80" departLane="best" from="222246981#1" id="veh1050" to="46835346" type="veh_passenger" />