<routes xmlns:xsi="http://www.w3.org/2001/XMLSchema-instance" xsi:noNamespaceSchemaLocation="http://sumo.dlr.de/xsd/routes_file.xsd">
    <vType id="truck_truck" vClass="truck" />
    <vehicle depart="2.87" departLane="best" id="truck3" type="truck_truck">
        <route edges="5680429#0 46788737 222246981#1 421755067#0 421755067#1 421755066 221723366 139919720#0 139919720#1 420880046#0 420880046#1 420880045 473475839 527223926 -222279148 420880044 420880042#0 420880042#1 420880041 420880039 451915588 496982424 451915590 451915592 -222258277 451915594#0 451915594#1 497382067#0 497382067#1 452286949#1 97010425#0 97010425#1 97010425#2 154508307 420583320 68523758 5677899#1 5677899#2 68523776-AddedOnRampEdge 68523776 97010373#0 97010373#1 -420584214#1" />
    </vehicle>
    <vehicle depart="9.55" departLane="best" id="truck10" type="truck_truck">
        <route edges="5677949#8 5676852#0 107391104#13 46818468#5 46818468#6 46818468#7 46818468#8 46818468#9 420875712 315569176#1 420875713#1 227064556#0 227064556#1 451915591#4 23334064 515885152#3 515885152#4" />
    </vehicle>
    <vehicle depart="15.28" departLane="best" id="truck16" type="truck_truck">
        <route edges="432552979#1 432552980#0 432552980#1 432552981#0 432552981#1 432552974 432552978 432552966#0 432552966#1 432552966#2 432552966#3 221696386#3 221696386#4 221696386#5 221696386#6 221696386#7 221696386#8 221696386#9 497257926#0 497257926#1 497257926#2 497257926#3 497257926#4 107391104#0 107391104#1 107391104#3 107391104#4 107391104#5 107391104#7 107391104#8 107391104#9 107391104#11 107391104#12 107391104#13 107391104#14 107391104#15 107391104#16 107391104#17 107391104#18 107391104#19 107391104#20 107391104#21 107391104#22 107391104#23 107391104#24 107391104#25 107391104#26 107391104#27 493933673#0 493933673#1 420512627 110155730#0 110155730#2 421754837 511768217 456391963#0 456391963#1 456391963#2 420571176#1 68325081 420571181 420572573 221696387 460576120 630677041 630677037" />
    </vehicle>
    <vehicle depart="20.06" departLane="best" id="truck21" type="truck_truck">
        <route edges="-37195087#2 -37195087#1 493933673#0 493933673#1 420512627 221723366 619552358 5681199#0 5681199#1 5681199#2 5681199#3 145079213#2" />
    </vehicle>
    <vehicle depart="24.83" departLane="best" id="truck26" type="truck_truck">
        <route edges="46846379#0 460569807#4 420346441 420346448#1 420346448#2 420346448#3 420346448#4 420346446 420346439 420346447#1 420346447#2 420346444#1 587355787#0 587355787#1 587355787#2 587355787#3 524340771#0 524340771#1 524340771#2 524340771#3 524340771#4 524340771#6 524340771#7 587355786 222254952#0 222254952#1 40416344#0 40416344#1 5680646 46137501#1 455014440#0 455014440#1 221723367 420880635 288862240#0 288862240#1 288862240#2 288862240#3 288862240#4 288862240#5 288862240#6 288862240#7 288862240#8 420875699 420875707#0 420875707#1 420875709#0 420875709#1 227074779#0 227074779#1 495491356#1 495491356#2 221696386#8 221696386#9 221696386#10 221696386#11 221696386#12 221696386#13 221696386#14 46818904#5 46818904#6 46818904#7 46818904#8 46818904#9 46818904#10 46818904#11" />
    </vehicle>
    <vehicle depart="37.25" departLane="best" id="truck39" type="truck_truck">
        <route edges="23334091#2 23334091#3 221696377#0 221696377#1 420319836#3 680852624 221759333#0 221759333#1 497254142 542169858 420875685 420875672 420875656#0 420875656#1 420875678 420875696 542169861#0 542169861#1 420883011 222251427 420883013 -420880630 -420880632 222279148 -527223926 -221731899 -420880045 -420880037 -420880046#0 -139919720#1 -139919720#0 500534706 110155730#0 110155730#2 421754837 511768217 456391963#0 456391963#1 456391963#2 110155732" />
    </vehicle>
    <vehicle depart="44.89" departLane="best" id="truck47" type="truck_truck">
        <route edges="489437292#10 489437292#11 489437292#12 -221585918#5 -221585918#4 -221585918#2 -221585918#1 -221585918#0 221585913 -221753948#2 -221753948#1 -221753948#0 -221753933 -221753950 221753947 -420315112 -221688252 497256111 497256112 497256109 221696378#0 221696378#1 420319834#0 420319834#1 420319834#2 420319831#1 421116787#0 421116787#1 421116787#2 421116787#3 421116785 420319836#0 420319836#1 420319836#2 420319836#3 680852624 221759333#0 221759333#1 497254142 542169858 420875685 420875672 420875656#0 420875656#1 420875678 420875696 542169861#0 542169861#1 420883011 222251427 420883013 -420880630 -420880632 420880044 420880042#0 420880042#1 46865766 226998579 497251282 680853691 68523765#0 68523765#1 68523765#2 68523765#3 68523765#4 68523765#5 68523765#6 68523765#7 226998578 111781747#0 111781747#1 111781747#2 111781747#3 111781747#4 111781747#5 111781747#6 111781747#7 451413253#0 451413253#1 451413253#2 451413253#3" />
    </vehicle>
    <vehicle depart="50.62" departLane="best" id="truck53" type="truck_truck">
        <route edges="5680880#3 5680880#4 421116791 535252392 421116792 421116787#0 421116787#1 421116787#2 421116787#3 421116785 420319836#0 420319836#1 420319836#2 420319836#3 680852624 221759333#0 221759333#1 497254142 542169858 420875685 420875672 420875656#0 420875656#1 420875678 420875696 542169861#0 542169861#1 420883011 222251427 420883013 -420880630 -420880632 -421151334#1 -421151334#0 -420880633 -222254955 -420880629 -420567581 -420567574 -420567572 -420567580 -420567576 -221603657 -420567575 -420567579 -420567573 -420567578 -420567577 -420567582 -23334074#2 -23334074#1 -23334074#0 46835336#13 5680024#3 5680024#4" />
    </vehicle>
    <vehicle depart="55.39" departLane="best" id="truck58" type="truck_truck">
        <route edges="-108166470 -421149636#1 -421149636#0 204843025#0 204843025#1 542169859 420875693#1 420875693#2 221759326 496980629#0 496980629#1 420319835#0 420319835#1 421116789#0 421116789#1 421116789#2 37624370#1 421116788 221688254 222246285#0 222246285#1 222246285#2" />
    </vehicle>
    <vehicle depart="58.26" departLane="best" id="truck61" type="truck_truck">
        <route edges="221602117#1 221602115#0 46838302#1 5677945#0 5677945#1 262798838 308338860 40785412 40785410#0 40785410#1 227074809 420346441 420346448#1 420346448#2 420346448#3 420346448#4 420346446 420346439 420346447#1 420346447#2 420346444#1 587355787#0 587355787#1 587355787#2 587355787#3 524340771#0 524340771#1 524340771#2 524340771#3 524340771#4 524340771#6 524340771#7 587355786 222254952#0 222254952#1 40416344#0 40416344#1 5680646 -420880037 -420880046#0 -139919720#1 -139919720#0 500534706 110155730#0 110155730#2 421754837 511768217 456391963#0 456391963#1 456391963#2 110155732 420571190#1 46788744#0 46788744#1 46788744#2 222247847#0 222247847#1 222247847#2 420886412 420886410#1 232270204 239626768 587355743 232270199 -639763613#1 -232270200#2" />
    </vehicle>
    <vehicle depart="59.21" departLane="best" id="truck62" type="truck_truck">
        <route edges="5680024#4 5680167#14 23334074#1 23334074#2 420567582 420567577 420567578 420567573 420567579 37396284 455014438 420572575 221604539 222248833 -222246978 -386201385 -460576121 -630677037 -630677041 -460576120 -221696387 -420572573 420571186 221605483#0 221605483#1 421754612 420571190#1 46788744#0 46788744#1 46788744#2 222247847#0 222247847#1 222247847#2 -420886405 -222258273#8 -222258273#7 -222258273#6 -222258273#5 -222258273#4 -222258273#3 -222258273#2 -222258273#1 -222258273#0 -464137215 -5678919#1 -5678919#0 78288188#0 78288188#1 78288188#2 78288188#3 78288188#4 5705730" />
    </vehicle>
    <vehicle depart="60.17" departLane="best" id="truck63" type="truck_truck">
        <route edges="-239629078 5680476#7 483140979 483140982#1 46818468#0 46818468#1 46818468#2 46818468#3 46818468#4 46818468#5 420875699 420875707#0 420875707#1 420875709#0 420875709#1 227074779#0 227074779#1 495491356#1 495491356#2 495491356#3 5676994#10 5676994#11 5676994#12 5676994#13 5676994#14 34287042#5 5677037#11" />
    </vehicle>
    <vehicle depart="62.08" departLane="best" id="truck65" type="truck_truck">
        <route edges="39956193#2 -321542908 -471943034#4 -471943034#3 -471943034#2 -471943034#1 -471943034#0 -471943031#4 -471943031#3 -471943031#2 276067484 -221753936#1 -221753936#0 -221753949#1 -221753949#0 227064529#0 227064529#1 -227074776#4 -227074776#3 -227074776#2 -227074776#1 -227074776#0 -587355778#3 -587355778#2 -587355778#1 -587355778#0 -68325083#2 -68325083#1 -68325083#0 -227074775#2 -227074775#1 -227074775#0 -5705730 5679460#0 5679460#1 46817493#0 46817493#1 46817493#2 46818468#1 46818468#2 -497253780#6 -497253780#5 -497253780#4 654744274#2 654744274#3 654744274#4 654744274#5 654744274#6 654744274#7 227064552 440633451 421149634 420875672 420875656#0 420875656#1 420875678 420875696 542169861#0 542169861#1 420883011 222251427 420883013 -420880630 -420880632 420880044 420880042#0 420880042#1 46865766 456407470" />
    </vehicle>
    <vehicle depart="97.41" departLane="best" id="truck102" type="truck_truck">
        <route edges="-483140981#1 -483140981#0 483140982#1 46818468#0 46818468#1 46818468#2 46818468#3 46818468#4 46818468#5 420875699 420875707#0 420875707#1 420875709#0 420875709#1 227074779#0 227074779#1 495491355#0 495491355#1 222246540#0 222246540#1 222246540#2 -222247159 221696386#3" />
    </vehicle>
    <vehicle depart="99.32" departLane="best" id="truck104" type="truck_truck">
        <route edges="440633404#0 183103118#1 183103118#2 5678784#17 5678784#18 5678784#19 23334074#2 420567582 420567577 420567578 420567573 420567579 37396284 455014438 420572575 221604539 222248833 -222246978 -386201385 -460576121 -630677037 -630677041 -460576120 -221696387 -420572573 420571186 221605483#0 221605483#1 421754612 420571190#1 46788744#0 46788744#1 46788744#2 222247847#0 222247847#1 222247847#2 -420886405 -222258273#8 -222258273#7 -222258273#6 -222258273#5 -222258273#4 -222258273#3 -222258273#2 -222258273#1 -222258273#0 -464137215 -5678919#1 -5678919#0 78288188#0 78288188#1 78288188#2 78288188#3 78288188#4 5705730 46141624 5677924 221795719#0 221795719#1 -587355765 -587355763 226933462#0 226933462#1 5676656#4 5676656#5" />
    </vehicle>
    <vehicle depart="113.65" departLane="best" id="truck119" type="truck_truck">
        <route edges="78288188#3 78288188#4 5679460#0 5679460#1 46817493#0 46817493#1 46817493#2 46817493#3 46817493#4 46817493#5 46817493#6 46817493#7 46817493#8 46817493#9 46817493#10 46817493#11 46817493#12 46817493#13 46817493#14 46817493#15 46817493#16 -222248832#3 -222248832#2 -222248832#1 -222248832#0 -222247847#2 -222247847#1 -222247847#0 37523532#0 37523532#1 68523771 68523772" />
    </vehicle>
    <vehicle depart="114.60" departLane="best" id="truck120" type="truck_truck">
        <route edges="-308340267#1 -308340267#0 -239629078 5680476#7 483140979 483140982#1 46818468#0 46818468#1 46818468#2 46818468#3 46818468#4 46818468#5 420875699 420875707#0 420875707#1 420875709#0 420875709#1 222246543#2 222246543#3 222246543#4 420626018 107391104#0 107391104#1" />
    </vehicle>
    <vehicle depart="127.97" departLane="best" id="truck134" type="truck_truck">
        <route edges="5678784#7 5678784#8 227074799#1 227074799#2 227074799#3 227074799#4 450814751 40416345 587355787#2 587355787#3 524340771#0 524340771#1 524340771#2 524340771#3 524340771#4 524340771#6 524340771#7 587355786 222254952#0 222254952#1 222254955 420880633 221759331#1 421151334#1 420880044 420880042#0 420880042#1 420880041 451915587 456257405 488941121#0 488941121#1 488941121#2 488941121#3 488941121#4 -420584211 -421149636#1 -421149636#0" />
    </vehicle>
    <vehicle depart="130.84" departLane="best" id="truck137" type="truck_truck">
        <route edges="46835341#0 5681767 46835344#2 -46121848#4 -46121848#2 -46121848#1 -46121848#0 -420572564 -420572567 -420572566 -5682051 -420572568 46121849 421120403 420569583 639805149 23334074#0 23334074#1 23334074#2 420567582 420567577 420567578 420567573 420567579 420567575 221603657 420567576 420567580 420567572 420567574 420567581 420880629 222254955 420880633 221759331#1 421151334#1 420880634 420880630 420883015 496984337 420883012 420883010 420875688 420875687 204843025#0 204843025#1 542169859 420875693#1 420875693#2 221759326 496980629#0 496980629#1 420319835#0 420319835#1 315569175#0 315569175#1 315569175#2 315569175#3 315569175#4 315569175#5 315569175#6 420315111#0 420315111#1 421084097 420304910#0 420304910#1 420304910#2 420304890#0 420304890#1 46865764#0 46865764#2 46865764#3 46865764#4 46865764#5 46865764#6 46865764#7 483704094#24 221585908#2" />
    </vehicle>
    <vehicle depart="135.61" departLane="best" id="truck142" type="truck_truck">
        <route edges="5678442#3 5678442#4 5679171#9 5679708#18 5679708#19 227064551#0 221753947 -420315112 -221688252 497256111 497256112 497256109 221696378#0 221696378#1 420319834#0 420319834#1 420319834#2 420319831#1 421116787#0 421116787#1 421116787#2 421116787#3 421116785 420319836#0 420319836#1 420319836#2 420319836#3 680852624 420875712 315569176#1 420875713#1 227064556#0 227064556#1 227064556#2 23334065#1 46772625#4 46772625#5" />
    </vehicle>
    <vehicle depart="137.52" departLane="best" id="truck144" type="truck_truck">
        <route edges="221603657 420567576 420567580 420567572 420567574 420567581 420880629 222254955 420880633 221759331#1 421151334#1 420880634 420880630 420883015 496984337 420883012 420883010 420875688 420875687 204843025#0 204843025#1 542169859 420875693#1 420875693#2 221759326 496980629#0 496980629#1 420319835#0 420319835#1 421116789#0 421116789#1 421116789#2 37624370#1 421116788 221688254 222246285#0 222246285#1 222246285#2 221696386#0 221696386#1 221696386#2 221696386#3 221696386#4 5680742#14" />
    </vehicle>
    <vehicle depart="139.43" departLane="best" id="truck146" type="truck_truck">
        <route edges="5680589#3 5680589#4 221597280#15 221585906#0 221585906#1 221585906#2 221585906#3 221585906#4 420304899 420319832#0 420319832#1 420319832#2 420319832#3 420319832#4 420319832#5 420319832#6 420319832#7 420319832#8 420319832#9 420319832#10 420319832#11 420319832#12 420319832#13 420319834#0 420319834#1 420319834#2 420319831#1 421116787#0 421116787#1 421116787#2 421116787#3 421116785 420319836#0 420319836#1 420319836#2 420319836#3 680852624 221759333#0 221759333#1 497254142 542169858 420875685 420875672 420875656#0 420875656#1 420875678 420875696 542169861#0 542169861#1 420883011 222251427 420883013 -420880630 -420880632 -421151334#1 -421151334#0 420883006 221759332 500269691 420882998 420883008#0 420883008#1 308331245#0 308331245#1 5676803#3 -68523765#3" />
    </vehicle>
    <vehicle depart="141.34" departLane="best" id="truck148" type="truck_truck">
        <route edges="5677150#0 5677150#1 -154513049#0 5674502#1 5674502#2 5674502#3 574211884 464137215 5675523 654744279 654744274#0 654744274#1 654744274#2 654744274#3 654744274#4 654744274#5 654744274#6 654744274#7 227064552 440633451 421149634 420875672 420875656#0 420875656#1 420875678 420875696 542169861#0 542169861#1 420883011 222251427 496984334 46772622#0 46772622#1 46772622#2 625647904#0 625647904#2 625647896#0 625647896#1 625647896#2 625647896#3 625647896#4 625647896#5 43242499#0 43242499#1 43242499#2 43242499#3 43242499#4 43242499#5 43242499#6 5680419#3" />
    </vehicle>
    <vehicle depart="146.12" departLane="best" id="truck153" type="truck_truck">
        <route edges="-221586637 -221759328#3 -221759328#2 -221759328#1 -221759328#0 -351479503#3 -351479503#2 -351479503#1 -351479503#0 497259892#0 497259892#1 497259892#2 497259892#3 497259892#4 46774534#0 46774534#1 46774534#2 46774534#3 46774534#4 46774534#5 46774534#6 46774534#7 46774534#8 420304899 420319832#0 420319832#1 420319832#2 420319832#3 420319832#4 420319832#5 420319832#6 420319832#7 420319832#8 420319832#9 420319832#10 420319832#11 420319832#12 420319832#13 420319834#0 420319834#1 420319834#2 420319831#1 421116787#0 421116787#1 421116787#2 421116787#3 421116785 420319836#0 420319836#1 420319836#2 420319836#3 680852624 221759333#0 221759333#1 497254142 542169858 420875685 -421149633 -421149635 -227064552 -654744274#7 -654744274#6 -654744274#5 -654744274#4 -654744274#3 -654744274#2 -654744274#1 -654744274#0 -654744279 46817493#6 46817493#7 46817493#8 46817493#9 46817493#10 46817493#11 -5681395#0 222258273#7 5676159#0" />
    </vehicle>
    <vehicle depart="147.07" departLane="best" id="truck154" type="truck_truck">
        <route edges="221759320#32 221759320#33 221759320#34 221759320#35 221759329 5680880#0 5680880#1 5680880#2 5680880#3 5680880#4 421116791 535252392 421116792 421116787#0 421116787#1 421116787#2 421116787#3 421116785 420319836#0 420319836#1 420319836#2 420319836#3 680852624 221759333#0 221759333#1 497254142 542169858 420875685 420875672 420875656#0 420875656#1 420875678 420875696 542169861#0 542169861#1 420883011 222251427 420883013 -420880630 -420880632 -421151334#1 -421151334#0 -420880633 -222254955 -420880629 -420567581 -420567574 -420567572 -420567580 -420567576 -221603657 -420567575 -420567579 -420567573 -420567578 -420567577 -420567582 -23334074#2 -23334074#1 -23334074#0 46835336#13 46835336#14 46835336#15 46835336#17 46835336#18 46835336#19 46835336#20 5681787#0 5681578" />
    </vehicle>
    <vehicle depart="157.58" departLane="best" id="truck165" type="truck_truck">
        <route edges="5681939#0 46863844#21 46863844#22 46863844#23 222254951#0 222254951#1 451962063 37396284 455014438 420572575 221604539 222248833 -222246978 -386201385 -5676917 -460126498#0 -460126495#0 -46788750 587067518#0 587067518#1 421754839 421121612 37394898#0 37394898#1 37394898#2 -464255708" />
    </vehicle>
    <vehicle depart="163.31" departLane="best" id="truck171" type="truck_truck">
        <route edges="227074786#2 227074786#3 5678262#12 530568998#2 -227074786#4 -227074786#3 -227074786#2 -227074786#1 -682886115#1 -682886115#0 -227074787#3 -227074787#1 -682886111#1 -321542908 -471943034#4 -471943034#3 -471943034#2 -471943034#1 -471943034#0 -471943031#4 -471943031#3 -471943031#2 276067484 -221753936#1 -221753936#0 -221753949#1 -221753949#0 227064529#0 227064529#1 -227074776#4 -227074776#3 -227074776#2 -227074776#1 -227074776#0 -587355778#3 -587355778#2 -587355778#1 -587355778#0 -68325083#2 -68325083#1 -68325083#0 -227074775#2 -227074775#1 -227074775#0 -5705730 5679460#0 5679460#1 46817493#0 46817493#1 46817493#2 46817493#3 46817493#4 46817493#5 46817493#6 46817493#7 46817493#8 46817493#9 46817493#10 46817493#11 5681395#1 46818905#0 46818905#2 463957168" />
    </vehicle>
    <vehicle depart="164.26" departLane="best" id="truck172" type="truck_truck">
        <route edges="123001156#2 123001156#3 450814751 40416345 587355787#2 587355787#3 524340771#0 524340771#1 524340771#2 524340771#3 524340771#4 524340771#6 524340771#7 587355786 222254952#0 222254952#1 40416344#0 40416344#1 5680646 46137501#1 455014440#0 455014440#1 221723367 420880635 288862240#0 288862240#1 288862240#2 288862240#3 288862240#4 288862240#5 288862240#6 288862240#7 288862240#8 420875699 420875707#0 420875707#1 420875709#0 420875709#1 227074779#0 227074779#1 495491356#1 495491356#2 221696386#8 221696386#9 221696386#10 221696386#11 221696386#12 221696386#13 221696386#14 221696386#15 587355778#0 587355778#1 587355778#2 587355778#3 227074776#0 227074776#1 227074776#2 227074776#3 227074776#4 -227064529#1 -227064529#0 221753949#0 221753949#1 221753935 -221585907#3 -221585907#2 -221585907#1 -221585907#0 -587355768 5675992 276145111 276145117#0 276145117#1 471943034#0 471943034#1 471943034#2 471943034#3 471943034#4 321542908 682886111#0 227074787#0 227074787#2 682886115#0 682886115#1 227074786#0 227074786#2 227074786#3 227074786#4 530568998#3 530568998#4" />
    </vehicle>
    <vehicle depart="165.22" departLane="best" id="truck173" type="truck_truck">
        <route edges="-111781747#3 -111781747#2 -111781747#1 -111781747#0 -226998578 -68523765#7 -68523765#6 -68523765#5 -68523765#4 -68523765#3 -68523765#2 -68523765#1 -68523765#0 -680853691 -497251282 -226998579 -46865766 -420880040 -420880042#0 -23334090 222279148 -527223926 -221731899 -420880045 46137501#1 455014440#0 455014440#1 221723367 420880635 288862240#0 288862240#1 288862240#2 288862240#3 288862240#4 288862240#5 288862240#6 288862240#7 288862240#8 420875699 420875707#0 420875707#1 420875709#0 420875709#1 227074779#0 227074779#1 495491356#1 495491356#2 495491356#3 46865765#0 46865765#1 46865765#2 46865765#3 46865765#4 46865765#5 46865765#6 5678442#18 5681383#8" />
    </vehicle>
    <vehicle depart="173.81" departLane="best" id="truck182" type="truck_truck">
        <route edges="-46121853#0 139919720#0 139919720#1 420880046#0 420880046#1 420880045 473475839 527223926 123001160 420883006 221759332 500269691 420882998 420883008#0 420883008#1 308331245#0 308331245#1 420584903#0 420584903#1 420346452 420346478#0 420346478#1 420346487#0 420346487#1 420346459 227074808 227074807#0 227074807#1 227074807#2 420346484#0 420346484#1 420346484#2 420346480#0 420346480#1 420346480#2 -227074810 -420346497 -420346496 -40785410#0 -5679441 5677584 308338861#0" />
    </vehicle>
    <vehicle depart="182.41" departLane="best" id="truck191" type="truck_truck">
        <route edges="5677818#0 5677818#1 5677818#2 5677949#27 5677949#28 569164779 5676994#4 5676994#5 5676994#6 5676994#7 46863673#0 46863673#1 46863673#2 46863673#3 497257926#0 497257926#1 497257926#2 497257926#3 497257926#4 107391104#0 107391104#1 107391104#3 107391104#4 107391104#5 107391104#7 107391104#8 107391104#9 107391104#11 107391104#12 107391104#13 107391104#14 107391104#15 107391104#16 107391104#17 107391104#18 107391104#19 107391104#20 107391104#21 107391104#22 107391104#23 107391104#24 107391104#25 107391104#26 107391104#27 493933673#0 493933673#1 420512627 221723366 139919720#0 139919720#1 420880046#0 420880046#1 420880045 473475839 527223926 123001160 420883006 221759332 500269691 308331246 -524340771#7 -524340771#6 -524340771#4 -524340771#3 -524340771#2 -524340771#1 -524340771#0 -587355787#3 -587355787#2 -587355787#1 -587355787#0 -23334088 -420346447#2 -420346447#1 -420346447#0 -420346446 -420346445 -420346448#3 5675573#9 5675573#10 5675573#11 -5678246#1 -5678278" />
    </vehicle>
    <vehicle depart="189.09" departLane="best" id="truck198" type="truck_truck">
        <route edges="5679109#1 5679109#2 5679109#4 420346490#2 420346490#3 491160987 420346485 446800952#0 446800952#1 420584902#0 420584902#1 420883009#0 420883009#1 420883007#0 420883007#1 222266013 620132897 420883003 -420880633 -222254955 -420880629 -420567581 -420567574 -420567572 -420567580 -420567576 -221603657 -420567575 37396284 455014438 420572575 221604539 222248833 -222246978 -386201385" />
    </vehicle>
    <vehicle depart="190.05" departLane="best" id="truck199" type="truck_truck">
        <route edges="275389083 682886115#0 5707635#2 5677438#14 -682886115#1 -682886115#0 -227074787#3 -227074787#1 -682886111#1 -321542908 -471943034#4 -471943034#3 -471943034#2 -471943034#1 -471943034#0 -471943031#4 -471943031#3 -471943031#2 276067484 -221753936#1 -221753936#0 -221753949#1 -221753949#0 227064529#0 227064529#1 -227074776#4 -227074776#3 -227074776#2 -227074776#1 -227074776#0 -587355778#3 -587355778#2 -587355778#1 -587355778#0 -68325083#2 -68325083#1 -68325083#0 -227074775#2 -227074775#1 -227074775#0 -5705730 5679460#0 5679460#1 46817493#0 46817493#1 46817493#2 46817493#3 46817493#4 46817493#5 46817493#6 46817493#7 46817493#8 46817493#9 46817493#10 46817493#11 46817493#12 46817493#13 46817493#14 46817493#15 46817493#16 46818464 68523753 46818457-AddedOnRampEdge 46818457 420571185 221605484#1 68325081 420571181 420571192 420571183 78288187#0 78288187#1 421120405 227074797#0 227074797#1 464255706#0 464255706#1 464255706#2 420571187 420571184 -227064517 5680049#0 5680049#1 227064520#0 46835336#22 46835336#23 5680085#1 5680085#2 5681691#3 5681691#4 5681691#5 46835368#1" />
    </vehicle>
    <vehicle depart="191.00" departLane="best" id="truck200" type="truck_truck">
        <route edges="-5679171#6 489437292#7 489437292#8 489437292#9 489437292#10 489437292#11 489437292#12 -221585918#5 -221585918#4 -221585918#2 -221585918#1 -221585918#0 221585913 -221753948#2 -221753948#1 -221753948#0 -221753933 -221753950 221753947 -420315112 -221688252 497256111 497256112 221688255#0 221688255#1 350687715#0 350687715#1 587355756 -221696380#0 -587067526#2 -587067526#1 -587067526#0 -23334091#3 -23334091#2 -23334091#1 -23334091#0 -46818468#8 -46818468#7 -46818468#6 -46818468#5 107391104#14 107391104#15 107391104#16 107391104#17 107391104#18 107391104#19 107391104#20 107391104#21 107391104#22 107391104#23 107391104#24 107391104#25 107391104#26 107391104#27 493933673#0 493933673#1 420512627 110155730#0 110155730#2 421754837 511768217" />
    </vehicle>
    <vehicle depart="196.73" departLane="best" id="truck206" type="truck_truck">
        <route edges="420880629 222254955 420880633 221759331#1 421151334#1 420880634 420880630 420883015 496984337 420883012 420883010 420875688 420875687 204843025#0 204843025#1 542169859 420875693#1 420875693#2 221759326 496980629#0 496980629#1 420319835#0 420319835#1 421116789#0 421116789#1 421116789#2 37624370#1 421116788 -221688255#1 -221688255#0 -497256112 -497256111 221688252 420315112 -221753947 221753950 221753933 221753948#0 221753948#1 221753948#2 -221585913 221585918#0 221585918#1 221585918#2 221585918#4 221585918#5 221585918#6 221585918#7 -227074781#19 -227074781#18 -227074781#17 -227074781#16 -227074781#15 -227074781#14 -227074781#13 -227074781#12 -227074781#11" />
    </vehicle>
    <vehicle depart="200.55" departLane="best" id="truck210" type="truck_truck">
        <route edges="464551540#1 464551540#2 464551540#3 420346490#0 420346490#1 420346490#2 420346490#3 491160987 420346485 446800952#0 446800952#1 420584902#0 420584902#1 420883009#0 420883009#1 420883007#0 420883007#1 222266013 620132897 420883003 -420880633 -222254955 40416344#0 40416344#1 5680646 46137501#1 455014440#0 455014440#1 221723367 420880635 288862240#0 288862240#1 288862240#2 288862240#3 288862240#4 288862240#5 288862240#6 288862240#7 288862240#8 420875699 420875707#0 420875707#1 420875709#0 420875709#1 227074779#0 227074779#1 495491356#1 495491356#2 221696386#8 221696386#9 221696386#10 221696386#11 221696386#12 206610786#15 206610786#16 206610786#17 206610786#18 206610786#19 497257600 497257603#0 497257603#1 497257603#2 497257603#3 497257603#4 497257603#5 497257603#8 497257603#9 221585916#6 221585916#7 221585916#8 221585916#9 221585916#10 221585916#11 221585916#12 227074763 -440633382#1 -440633382#0 -221688754#4 -221688754#3 -221688754#2 -221688754#0 219964442#0 219964442#1 221725599#0 221725599#1 221725602#1 221725602#3 221777100#0 221777100#1 221777100#2 5710128#0" />
    </vehicle>
    <vehicle depart="202.46" departLane="best" id="truck212" type="truck_truck">
        <route edges="530569001#4 530569001#5 530568994 -432554453#2 -432554453#1 -432554453#0 221725601#0 221725601#1 221725601#2 221725601#3 -227074765#3 -227074765#2 -227074765#1 -227074765#0 -68523760#2 -68523760#1 -68523760#0 -471943034#4 -471943034#3 -471943034#2 -471943034#1 -471943034#0 -471943031#4 -471943031#3 -471943031#2 276067484 -221753936#1 -221753936#0 -221753949#1 -221753949#0 227064529#0 227064529#1 -227074776#4 -227074776#3 -227074776#2 -227074776#1 -227074776#0 -587355778#3 -587355778#2 -587355778#1 -587355778#0 -68325083#2 -68325083#1 -68325083#0 -227074775#2 -46818902#1 -46818902#0 420884512 420884510" />
    </vehicle>
    <vehicle depart="204.37" departLane="best" id="truck214" type="truck_truck">
        <route edges="5680479 497258460#3 497258460#4 497259892#0 497259892#1 497259892#2 497259892#3 497259892#4 46774534#0 46774534#1 46774534#2 46774534#3 46774534#4 46774534#5 46774534#6 46774534#7 46774534#8 420304899 420319832#0 420319832#1 420319832#2 420319832#3 420319832#4 420319832#5 420319832#6 420319832#7 420319832#8 420319832#9 420319832#10 420319832#11 420319832#12 420319832#13 420319834#0 420319834#1 420319834#2 420319831#1 421116787#0 421116787#1 421116787#2 421116787#3 421116785 420319836#0 420319836#1 420319836#2 420319836#3 680852624 221759333#0 221759333#1 497254142 542169858 420875685 421149636#0 421149636#1 421118180 420584209 420584206 420584207 420584210 420584208 420584212 421118181#1 420584214#1 97010395#0 452286948#1 97010425#2 154508307 420583320 5676489#3 5676489#4 5676489#5 5676489#6 5676489#8 5676489#9 5676489#10 5676489#11" />
    </vehicle>
    <vehicle depart="211.06" departLane="best" id="truck221" type="truck_truck">
        <route edges="43315004#0 43315004#1 420583318#0 420583318#1 5677899#1 5677899#2 68523776-AddedOnRampEdge 68523776 221731900 5675825#0 5675825#1 420583320 5676489#3 5676489#4 5676489#5 5676489#6 5676489#8 5676489#9 5676489#10 5676489#11 5676489#12 5676489#13 5675573#0 5675573#1 -494221659#6" />
    </vehicle>
    <vehicle depart="217.74" departLane="best" id="truck228" type="truck_truck">
        <route edges="5679548#0 5679548#1 221725601#0 221725601#1 221725601#2 221725601#3 -227074765#3 -227074765#2 -227074765#1 -227074765#0 -68523760#2 -68523760#1 -68523760#0 -471943034#4 -471943034#3 -471943034#2 -471943034#1 -471943034#0 -471943031#4 -471943031#3 -471943031#2 276067484 -221753936#1 -221753936#0 -221753949#1 -221753949#0 227064529#0 227064529#1 -227074776#4 -227074776#3 5677037#29 5677037#31 5677037#32 5677037#33 5677037#34 5677037#36 5677037#37 5677037#38" />
    </vehicle>
    <vehicle depart="218.70" departLane="best" id="truck229" type="truck_truck">
        <route edges="227074776#3 227074776#4 -227064529#1 -227064529#0 221753934#1 -5679826 227064529#1 -227074776#4 -227074776#3 -227074776#2 -227074776#1 -227074776#0 -587355778#3 -587355778#2 -587355778#1 -587355778#0 -68325083#2 -68325083#1 -68325083#0 -227074775#2 -227074775#1 -227074775#0 -5705730 -78288188#4 -78288188#3 -78288188#2 -78288188#1 -78288188#0 5678919#0 5678919#1 -574211884 -5678535 -5680476#4 -5680476#3 -5680476#2 -5680476#1 -154513049#1 -154513049#0" />
    </vehicle>
    <vehicle depart="231.11" departLane="best" id="truck242" type="truck_truck">