<routes xmlns:xsi="http://www.w3.org/2001/XMLSchema-instance" xsi:noNamespaceSchemaLocation="http://sumo.dlr.de/xsd/routes_file.xsd">
    <vType id="veh_passenger" vClass="passenger" />
    <vehicle depart="0.43" departLane="best" id="veh1" type="veh_passenger">
        <route edges="123001156#0 123001156#1 123001156#2 123001156#3 347014806#0 347014806#1 347014806#2 347014805#0 347014805#1 347014805#2 347014805#3 347014805#4 347014805#5 347014805#6 347014804#0 347014804#1 347014804#2 347014804#3 -420567580 -420567576 -221603657 -420567575 -420567579 -420567573 25563870#1 440633379 221605488 5029221 221731897#0 221731897#1 68523754#0 68523754#1 68523754#2 495315405#0 495315405#1 421754059 122660423#0 122660423#1 122660423#2 46121877#0 46121877#1 122660451" />
    </vehicle>
    <vehicle depart="0.87" departLane="best" id="veh2" type="veh_passenger">
        <route edges="5674356 122625703 122625703-AddedOffRampEdge 46835357#0 5673865 5673865-AddedOffRampEdge 671273490 -5682051 -420572568 46121849 421120403 420569583 639805149 23334074#0 23334074#1 23334074#2 420567582 420567577 420567578 420567573 420567579 420567575 221603657 420567576 420567580 420567572 420567574 420567581 420880629 222254955 420880633 221759331#1 421151334#1 420880634 420880630 420883015 496984337 420883012 420883010 420875688 420875687 204843025#0 204843025#1 542169859 420875693#1 420875693#2 420875712 315569176#1 420875713#1 227064556#0 227064556#1 227064556#2 227064556#3 227064556#5 227064553 420584215 221759323#1 221759323#2 335394629 497258436 335394630 110277551#0 110277551#1 110277551#2 110277551#3 110277551#4 495491358#1 495491358#2" />
    </vehicle>
    <vehicle depart="2.60" departLane="best" id="veh6" type="veh_passenger">
        <route edges="-221586639#2 -221586639#1 -221586639#0 -451910414#10 -451910414#9 -46865764#9 -46865764#8 -46865764#7 -46865764#6 -46865764#5 -46865764#4 -46865764#3 -46865764#2 -46865764#0 -497256596 -497256597 46774534#6 46774534#7 46774534#8 420304899 420319832#0 420319832#1 420319832#2 420319832#3 420319832#4 420319832#5 420319832#6 420319832#7 420319832#8 420319832#9 420319832#10 420319832#11 420319832#12 420319832#13 420319834#0 420319834#1 420319834#2 420319831#1 421116787#0 421116787#1 421116787#2 421116787#3 421116785 420319836#0 420319836#1 420319836#2 420319836#3 680852624 221759333#0 221759333#1 497254142 542169858 420875685 -421149633 -421149635 -227064552 -654744274#7 -654744274#6 -654744274#5 -654744274#4 -654744274#3 -654744274#2 -654744274#1 -654744274#0 -654744279 46817493#6 46817493#7 46817493#8 46817493#9 46817493#10 46817493#11 46817493#12 46817493#13 46817493#14 46817493#15 46817493#16 -222248832#3 -222248832#2 -222248832#1 -222248832#0 420886412 420886410#1 232270204 239626768 587355743 232270199 -639763613#1" />
    </vehicle>
    <vehicle depart="3.04" departLane="best" id="veh7" type="veh_passenger">
        <route edges="46835354 46835346 46835336#10 46835336#11 46835336#12 23334074#0 23334074#1 23334074#2 420567582 420567577 420567578 25563870#1 440633379 221605488 5029221 221731897#0 221731897#1 68523754#0 68523754#1 68523754#2 495315405#0 495315405#1 525646871#0 525646871#1 420571191 420572573 221696387 460576120 630677041 630677037 460576121" />
    </vehicle>
    <vehicle depart="4.34" departLane="best" id="veh10" type="veh_passenger">
        <route edges="5677924 46818902#1 40131509 40711968#0 40711968#1 206610786#5 206610786#6 206610786#7 206610786#10 206610786#13 206610786#14 206610786#15 206610786#16 206610786#17 206610786#18 206610786#19 497257600 5679708#0 5679708#1 5679708#2 5679708#3 5679708#4 51980526#2" />
    </vehicle>
    <vehicle depart="4.78" departLane="best" id="veh11" type="veh_passenger">
        <route edges="221696386#9 497257926#0 497257926#1 5680703#8 5680704 495491356#1 495491356#2 495491356#3 5676994#10 5676994#11 5676994#12 5676994#13 5676994#14 5676994#15 5676994#16 5676994#17 5676994#18 221696381#0 221696381#1 221696381#2 497256110#0 497256110#1 -497256112 -497256111 221688252 420315112 -221753947 221753950 221753933 221753948#0 221753948#1 221753948#2 -221585913 221585918#0 221585918#1 221585918#2 221585918#4 221585918#5 221585918#6 221585918#7 221585918#8 221585918#9 221585918#10 221585918#11 221585918#12 636728274#0 -636728275 -5678101#16 -5678101#15 -5678101#14 -5678101#13 -5678101#12 -5678101#11 -5678101#10 -5678101#9 -5678101#8 -5678101#7" />
    </vehicle>
    <vehicle depart="6.08" departLane="best" id="veh14" type="veh_passenger">
        <route edges="5678784#10 5678784#11 5678784#12 5678784#13 5678784#14 5678784#15 5678784#16 5678784#17 5678784#18 5678784#19 23334074#2 420567582 420567577 420567578 420567573 420567579 37396284 455014438 420572575 221604539 222248833 -222246978 -386201385 -5676917 -460126498#0 -460126495#0 -46788750 587067518#0 587067518#1 421754839 421121612 37394898#0 37394898#1 37394898#2 37394898#3 37394898#4 37394899#0 37394899#1 37394899#2 37394899#3 37394899#4 37394899#5 37394900 497253780#0 497253780#1 497253780#2 497253780#3 497253780#4 497253780#5 497253780#6 497253780#7 497253780#8 682402389 682402388 497253779 682402640 206610786#0 206610786#1 206610786#4 206610786#5 206610786#6 206610786#7 206610786#10 206610786#13 206610786#14 206610786#15 206610786#16 206610786#17 206610786#18 206610786#19 5677037#22 5677037#23 5677037#24 5677037#25 46818904#14 46818904#15" />
    </vehicle>
    <vehicle depart="13.89" departLane="best" id="veh32" type="veh_passenger">
        <route edges="5678649 421116787#3 421116785 227064531#1 227064531#2 222246284 222246286#1 542169856#3 542169856#4 542169856#5 542169856#6 542169856#7 542169856#8 542169856#9 542169856#10 542169856#11 542169856#12 542169856#13 542169856#14 542169856#15 5677397#6 5677397#7 5677397#8 5677397#9" />
    </vehicle>
    <vehicle depart="14.33" departLane="best" id="veh33" type="veh_passenger">
        <route edges="-5681884 221585914#27 221585914#28 5674974#0 221585916#1 5678177 276145117#0 276145117#1 471943034#0 471943034#1 471943034#2 471943034#3 471943034#4 68523760#0 68523760#1 68523760#2 5676692 227074763 349369490 440633426 227074781#0 227074781#1 227074781#2 227074781#3 227074781#4 227074781#5 227074781#6 227074781#7 227074781#8 227074781#9 227074781#10 227074781#11 227074781#12 227074781#13 227074781#14 227074781#15 227074781#16 227074781#17 227074781#18 227074781#19 5680361#0 5680361#1 497256597 497256596 46865764#0 46865764#2 46865764#3 46865764#4 46865764#5 46865764#6 46865764#7 483704094#24 483704094#25 -221759317#1" />
    </vehicle>
    <vehicle depart="16.06" departLane="best" id="veh37" type="veh_passenger">
        <route edges="46838317#1 496995105#0 496995105#1 308338861#0 5680807#1 308338860 40785412 40785410#0 40785410#1 227074809 420346441 420346448#1 420346448#2 420346448#3 420346448#4 420346446 420346439 420346447#1 420346447#2 420346444#1 587355787#0 587355787#1 587355787#2 587355787#3 524340771#0 524340771#1 524340771#2 524340771#3 524340771#4 524340771#6 524340771#7 587355786 222254952#0 222254952#1 222254955 420880633 221759331#1 421151334#1 420880634 420880630 420883015 496984337 420883012 420883010 420875688 420875687 204843025#0 204843025#1 542169859 420875693#1 420875693#2 420875712 315569176#1 420875713#1 227064556#0 227064556#1 227064556#2 227064556#3 227064556#5 227064553 420584215 221759323#1 221759323#2 335394629 420583309#0 420583309#1 420583304#1 420583302#1 420318565 -658936635#1 -221570521#7 274894225" />
    </vehicle>
    <vehicle depart="19.97" departLane="best" id="veh46" type="veh_passenger">
        <route edges="5677340#3 5679816 46835362 46835367#0 46835367#1 46835367#2 46835367#3 5678784#27 440606690 -227064517 39015290#0 39015290#1 39015290#2 278135785#0 278135785#1 46819907 5680220#1 440633442 451934311 486010416 557041245 440633414 46819926#0 545291578#1 545291578#1-AddedOffRampEdge 46137556 222258266#0 222258266#1 222258266#2 -420886409 -420886410#0 -420886405 -222258273#8 -222258273#7 -222258273#6 -222258273#5 -222258273#4 -222258273#3 -222258273#2 -222258273#1 -222258273#0 -464137215 -574211884 -5678535 -5680476#4 -5680476#3 456244373 308340267#4 308340267#5 308340267#6" />
    </vehicle>
    <vehicle depart="20.40" departLane="best" id="veh47" type="veh_passenger">
        <route edges="-227074810 420346441 420346448#1 420346448#2 420346448#3 420346448#4 420346446 420346439 420346447#1 420346447#2 420346444#1 587355787#0 587355787#1 587355787#2 587355787#3 524340771#0 524340771#1 524340771#2 524340771#3 524340771#4 524340771#6 524340771#7 587355786 222254952#0 222254952#1 40416344#0 40416344#1 5680646 -420880037 -420880046#0 -139919720#1 -139919720#0 500534706 110155730#0 110155730#2 421754837 511768217 456391963#0 456391963#1 456391963#2 110155732 420571190#1 46788744#0 46788744#1 46788744#2 222247847#0 222247847#1 222247847#2 420886412 420886410#1 232270204 239626768 -239626765 -5676705 239626766" />
    </vehicle>
    <vehicle depart="21.70" departLane="best" id="veh50" type="veh_passenger">
        <route edges="-185196951 354928473#0 300084882 587355787#3 524340771#0 524340771#1 524340771#2 524340771#3 524340771#4 524340771#6 524340771#7 587355786 222254952#0 222254952#1 40416344#0 40416344#1 5680646 46137501#1 455014440#0 455014440#1 221723367 420880635 288862240#0 288862240#1 288862240#2 288862240#3 288862240#4 288862240#5 288862240#6 288862240#7 288862240#8 420875699 420875707#0 420875707#1 420875709#0 420875709#1 227074779#0 227074779#1 495491356#1 495491356#2 221696386#8 221696386#9 221696386#10 221696386#11 221696386#12 221696386#13 221696386#14 221696386#15 587355778#0 587355778#1 587355778#2 587355778#3 227074776#0 227074776#1 227074776#2 227074776#3 227074776#4 -227064529#1 -227064529#0 221753949#0 221753949#1 -300338876#1 5675082#0" />
    </vehicle>
    <vehicle depart="22.14" departLane="best" id="veh51" type="veh_passenger">
        <route edges="479748558#1 5677397#8 221753942#5 221753942#6 479748557#0 479748557#1 479748557#2 497258437#3 497258437#4 497258437#5 497258437#6 221759320#34 221759320#35 221759329 5680880#0 5680880#1 5680880#2 5680880#3 5680880#4 421116791 535252392 421116792 421116787#0 421116787#1 421116787#2 421116787#3 421116785 420319836#0 420319836#1 420319836#2 420319836#3 680852624 221759333#0 221759333#1 497254142 542169858 420875685 420875672 420875656#0 420875656#1 420875678 420875696 542169861#0 542169861#1 420883011 222251427 496984334 46772622#0 46772622#1 46772622#2 625647904#0 625647904#2 451915593#1" />
    </vehicle>
    <vehicle depart="23.01" departLane="best" id="veh53" type="veh_passenger">
        <route edges="-421118181#1 -421118181#0 497382070 -451915594#1 -451915594#0 222258277 -451915592 -451915590 -496982424 -451915588 -222251431 -420880043 46865766 226998579 46865767#0 308331246 46865768#0 46865768#1 46865768#2 641915866#3 641915866#4 641915866#5 641915866#6 641915866#7 641915866#8 641915866#9 641915866#10 227064535#0 5681030#8 347014806#2" />
    </vehicle>
    <vehicle depart="28.22" departLane="best" id="veh65" type="veh_passenger">
        <route edges="221585906#1 221585906#2 221585906#3 221585906#4 420304899 420319832#0 420319832#1 420319832#2 420319832#3 420319832#4 420319832#5 420319832#6 420319832#7 420319832#8 420319832#9 420319832#10 420319832#11 420319832#12 420319832#13 420319834#0 420319834#1 420319834#2 420319831#1 421116787#0 421116787#1 421116787#2 421116787#3 421116785 420319836#0 420319836#1 420319836#2 420319836#3 680852624 221759333#0 221759333#1 497254142 542169858 420875685 -421149633 -421149635 -227064552 -654744274#7 -654744274#6 -654744274#5 -654744274#4 -654744274#3 -654744274#2 -654744274#1 -654744274#0 -654744279 46817493#6 46817493#7 46817493#8 46817493#9 46817493#10 46817493#11 46817493#12 46817493#13 46817493#14 46817493#15 46817493#16 -222248832#3 -222248832#2 -222248832#1 -222248832#0 420886412 420886410#1 232270204 239626768 -239626765 -239626767#1" />
    </vehicle>
    <vehicle depart="28.65" departLane="best" id="veh66" type="veh_passenger">
        <route edges="5679904#6 5679904#7 221585917#2 -46865764#3 -46865764#2 -46865764#0 -497256596 -497256597 -5680361#1 -5680361#0 221585918#8 221585918#9 221585918#10 221585918#11 221585918#12 636728274#0 -636728275 -5678101#16 -5678101#15 -5678101#14 -5678101#13 -5678101#12 -5678101#11 -5678101#10 -5678101#9 -5678101#8 -5678101#7 -5678101#6 -5678101#5 -5678101#4 -5678101#3 -5678101#2 -5678101#1 34287042#14 221777100#2 5710128#0" />
    </vehicle>
    <vehicle depart="30.82" departLane="best" id="veh71" type="veh_passenger">
        <route edges="110155730#2 421754837 511768217 421754839 421121612 37394898#0 37394898#1 37394898#2 37394898#3 37394898#4 37394899#0 37394899#1 37394899#2 37394899#3 37394899#4 37394899#5 37394900 497253780#0 497253780#1 497253780#2 497253780#3 497253780#4 497253780#5 497253780#6 46818468#3 46818468#4 46818468#5 46818468#6 46818468#7 46818468#8 23334091#0 23334091#1 23334091#2 23334091#3 587067526#0 587067526#1 587067526#2 221696380#0 221696380#1 -350687715#1 -350687715#0 -221688255#1 -221688255#0 -497256112 -497256111 221688252 420315112 -221753947 221753950 221753933 221753948#0 221753948#1 221753948#2 5676437 5680159#2 5680159#3" />
    </vehicle>
    <vehicle depart="31.69" departLane="best" id="veh73" type="veh_passenger">
        <route edges="421118179 5681903 5676379#0 5676379#1 5677899#2 68523776-AddedOnRampEdge 68523776 97010378#0 452286946#1 -452286949#1 -497382067#1 -497382067#0 -451915594#1 -451915594#0 222258277 -451915592 -451915590 -496982424 -451915588 -222251431 -420880043 -420880040 -420880042#0 -23334090 222279148 -527223926 -221731899 -420880045 46137501#1 -46788753#3 46121853#5 5675915#4" />
    </vehicle>
    <vehicle depart="33.86" departLane="best" id="veh78" type="veh_passenger">
        <route edges="221696386#10 221696386#11 221696386#12 -206610786#14 -206610786#13 -206610786#10 -206610786#7 -206610786#6 -206610786#5 -206610786#4 -206610786#1 -206610786#0 -682402640 -497253779 -682402388 -682402389 -497253780#8 -497253780#7 -497253780#6 -497253780#5 -497253780#4 -497253780#3 -497253780#2 -497253780#1 -497253780#0 -37394900 -37394899#5 -37394899#4 -37394899#3 -37394899#2 -37394899#1 -37394899#0 -37394898#4 -37394898#3 -37394898#2 -37394898#1 -37394898#0 421121616 421121610 41381890#0 41381890#1 41381890#2 46788750" />
    </vehicle>
    <vehicle depart="36.90" departLane="best" id="veh85" type="veh_passenger">
        <route edges="5681691#0 5681691#1 223185218#0 223185218#1 223185218#2 5680167#6 -5680049#1 -5680049#0 39015290#0 39015290#1 39015290#2 278135785#0 278135785#1 46819907 5680220#1 440633442 451934311 486010416 557041245 440633414 46819926#0 545291578#1 545291578#1-AddedOffRampEdge 46137556 222258266#0 222258266#1 222258266#2 -420886409 -420886410#0 420886411 222248832#1 222248832#2 222248832#3 5676937 5675963#0 5675963#1 5675963#2 5675963#3 5675963#4 5675963#5 5675963#6 5675963#7 46818905#0 46818905#2 463957168" />
    </vehicle>
    <vehicle depart="37.33" departLane="best" id="veh86" type="veh_passenger">
        <route edges="349369490 587355773 5675586 -227074765#0 -68523760#2 -68523760#1 -68523760#0 -471943034#4 -471943034#3 -471943034#2 -471943034#1 -471943034#0 -471943031#4 -471943031#3 -471943031#2 276067484 -221753936#1 -221753936#0 -221753949#1 -221753949#0 227064529#0 227064529#1 -227074776#4 -227074776#3 -227074776#2 -227074776#1 -227074776#0 -587355778#3 -587355778#2 -587355778#1 -587355778#0 -68325083#2 -68325083#1 -68325083#0 -227074775#2 -227074775#1 -227074775#0 -5705730 5679460#0 5679460#1 46817493#0 46817493#1 46817493#2 46817493#3 46817493#4 46817493#5 46817493#6 46817493#7 5677585#1" />
    </vehicle>
    <vehicle depart="39.07" departLane="best" id="veh90" type="veh_passenger">
        <route edges="542169856#12 -420318571 -420318569 -420318561 -420318559 -420583304#1 -420583304#0 -420583309#0 -420583307#1 -420583307#0 -420583316#0 -295384457#1 -295384457#0 -420583311 420583298#0 420583298#1 5676379#0 5676379#1 5677899#2 68523776-AddedOnRampEdge 68523776 97010378#0 452286946#1 -452286949#1 5682095#1 5680116#0 5680116#1 525679230#3 525679230#4 525679230#5 525679230#6 494221659#0 494221659#1 494221659#2 494221659#3 494221659#4 494221659#5 494221659#6 494221659#7 494221659#8" />
    </vehicle>
    <vehicle depart="40.37" departLane="best" id="veh93" type="veh_passenger">
        <route edges="5679567 5680024#4 5680167#14 23334074#1 23334074#2 420567582 420567577 420567578 420567573 420567579 37396284 455014438 420572575 221604539 222248833 -222246978 -386201385 -5676917 -460126498#0 -460126495#0 -46788750 587067518#0 587067518#1 421754839 421121612 37394898#0 37394898#1 37394898#2 37394898#3 37394898#4 37394899#0 37394899#1 37394899#2 37394899#3 37394899#4 37394899#5 37394900 497253780#0 497253780#1 497253780#2 497253780#3 497253780#4 497253780#5 497253780#6 497253780#7 497253780#8 682402389 682402388 497253779 682402640 206610786#0 206610786#1 206610786#4" />
    </vehicle>
    <vehicle depart="40.81" departLane="best" id="veh94" type="veh_passenger">
        <route edges="-5678101#0 -221725602#3 -221725602#1 -221725599#1 -221725599#0 -219964442#1 -219964442#0 221688754#0 221688754#2 221688754#3 221688754#4 5675586 -227074765#0 -68523760#2 -68523760#1 -68523760#0 -471943034#4 -471943034#3 -471943034#2 -471943034#1 -471943034#0 -471943031#4 -471943031#3 -471943031#2 276067484 -221753936#1 -221753936#0 -221753949#1 -221753949#0 227064529#0 227064529#1 -227074776#4 -227074776#3 -227074776#2 -227074776#1 -227074776#0 -587355778#3 -587355778#2 -587355778#1 -587355778#0 -68325083#2 -68325083#1 -68325083#0 -227074775#2 -227074775#1 -227074775#0 -5705730 5679460#0 5679460#1 46817493#0 46817493#1 46817493#2 46817493#3 46817493#4 46817493#5 46817493#6 46817493#7 46817493#8 46817493#9 46817493#10 46817493#11 46817493#12 46817493#13 46817493#14 46817493#15 46817493#16 46818464 68523753 46818457-AddedOnRampEdge 46818457 420571185 221605484#1 524345883 524345883-AddedOffRampEdge 37523639" />
    </vehicle>
    <vehicle depart="43.84" departLane="best" id="veh101" type="veh_passenger">
        <route edges="5678784#18 5678784#19 23334074#2 420567582 420567577 420567578 420567573 420567579 37396284 455014438 420572575 221604539 222248833 -222246978 -386201385 -460576121 -630677037 -630677041 -460576120 -221696387 -420572573 420571186 221605483#0 221605483#1 421754612 420571190#1 46788744#0 46788744#1 46788744#2 222247847#0 222247847#1 222247847#2 -420886405 -222258273#8 -222258273#7 -222258273#6 -222258273#5 -222258273#4 -222258273#3 -222258273#2 -222258273#1 -222258273#0 -464137215 -5678919#1" />
    </vehicle>
    <vehicle depart="44.28" departLane="best" id="veh102" type="veh_passenger">
        <route edges="38341528#4 475559459#4 5676268 276050436 276050437 5680880#2 5680880#3 5680880#4 421116791 535252392 421116792 421116787#0 421116787#1 421116787#2 421116787#3 421116785 420319836#0 420319836#1 420319836#2 420319836#3 680852624 221759333#0 221759333#1 497254142 542169858 420875685 421149636#0 421149636#1 108166470" />
    </vehicle>
    <vehicle depart="44.71" departLane="best" id="veh103" type="veh_passenger">
        <route edges="227074781#7 227074781#8 227074781#9 227074781#10 227074781#11 227074781#12 227074781#13 227074781#14 227074781#15 227074781#16 227074781#17 227074781#18 227074781#19 -221585918#7 -221585918#6 -221585918#5 -221585918#4 -221585918#2 -221585918#1 -221585918#0 221585913 -221753948#2 -221753948#1 -221753948#0 -221753933 -221753950 221753947 -420315112 -221688252 497256111 497256112 221688255#0 221688255#1 350687715#0 350687715#1 587355756 -221696380#0 -587067526#2 -587067526#1 -587067526#0 -23334091#3 -23334091#2 -23334091#1 -23334091#0 -46818468#8 -46818468#7 -46818468#6 -46818468#5 -46818468#4 -46818468#3 -46818468#2 -46818468#1 -46818468#0 5678919#0 5678919#1 464137215 222258273#0 222258273#1 222258273#2 222258273#3 222258273#4 222258273#5 222258273#6 222258273#7 222258273#8 222258273#9 420886412 420886410#1 232270204 239626768 587355743 232270200#0 232270200#1 232270200#2 232270200#3 -5677695#1 -5677695#0 -239626769#3" />
    </vehicle>
    <vehicle depart="46.01" departLane="best" id="veh106" type="veh_passenger">
        <route edges="308340267#7 308340267#8 308340267#9 -456244378#2 5680476#0 5680476#1 5680476#2 5680476#3 5680476#4 5678535 574211884 -5678919#1 -5678919#0 46818468#0 46818468#1 46818468#2 46818468#3 46818468#4 46818468#5 46818468#6 46818468#7 46818468#8 46818468#9 420875712 315569174" />
    </vehicle>
    <vehicle depart="48.62" departLane="best" id="veh112" type="veh_passenger">
        <route edges="-227074781#1 -227074781#0 -440633426 587355773 5675586 -227074765#0 -68523760#2 -68523760#1 -68523760#0 -471943034#4 -471943034#3 -471943034#2 -471943034#1 -471943034#0 -471943031#4 -471943031#3 -471943031#2 276067484 -221753936#1 -221753936#0 -221753949#1 -221753949#0 227064529#0 227064529#1 -227074776#4 -227074776#3 -227074776#2 -227074776#1 -227074776#0 -587355778#3 -587355778#2 -587355778#1 -587355778#0 -68325083#2 -68325083#1 -68325083#0 -227074775#2 -227074775#1 -227074775#0 -5705730 5679460#0 5679460#1 46817493#0 46817493#1 46817493#2 46817493#3 46817493#4 46817493#5 46817493#6 46817493#7 46817493#8 46817493#9 46817493#10 46817493#11 46817493#12 46817493#13 46817493#14 46817493#15 46817493#16 46818464 68523753 46818457-AddedOnRampEdge 46818457 420571185 221605484#1 68325081 420571181 420572573 221696387 46788735" />
    </vehicle>
    <vehicle depart="49.92" departLane="best" id="veh115" type="veh_passenger">
        <route edges="-315569176#0 221759326 496980629#0 496980629#1 420319835#0 420319835#1 315569175#0 315569175#1 315569175#2 315569175#3 315569175#4 315569175#5 315569175#6 420315111#0 420315111#1 421084097 420304910#0 420304910#1 420304910#2 420304890#0 420304890#1 420304895 420304902#1 420304892 -5681577#3" />
    </vehicle>
    <vehicle depart="51.22" departLane="best" id="veh118" type="veh_passenger">
        <route edges="5680167#4 5680167#5 5680167#6 -5680049#1 -5680049#0 39015290#0 39015290#1 39015290#2 278135785#0 278135785#1 46819907 5680220#1 440633442 451934311 486010416 557041245 440633414 46819926#0 545291578#1 545291578#1-AddedOffRampEdge 46137556 222258266#0 222258266#1 222258266#2 -420886409 -420886410#0 420886411 222248832#1 222248832#2 222248832#3 5676937 5675963#0 5675963#1 5675963#2 5675963#3 5675963#4 5675963#5 5675963#6 5675963#7 5675963#8 5675963#9 460584836#0 460584836#1 204842637#0" />
    </vehicle>
    <vehicle depart="51.66" departLane="best" id="veh119" type="veh_passenger">
        <route edges="46121853#1 5675447#1 420880045 473475839 527223926 123001160 -420880633 -222254955 -420880629 -420567581 -420567574 -420567572 -420567580 -420567576 -221603657 -420567575 -420567579 -420567573 -420567578 -420567577 -420567582 -23334074#2 -23334074#1 5680167#15 5680167#16 440633404#0 440633404#1 440633404#2 440633404#3 440633404#4 46835349#4 46835349#5 46835349#6" />
    </vehicle>
    <vehicle depart="52.96" departLane="best" id="veh122" type="veh_passenger">
        <route edges="-5678889#1 -5678889#0 46774534#0 46774534#1 46774534#2 46774534#3 46774534#4 46774534#5 46774534#6 46774534#7 46774534#8 420304899 420319832#0 420319832#1 420319832#2 420319832#3 420319832#4 420319832#5 420319832#6 420319832#7 420319832#8 420319832#9 420319832#10 420319832#11 420319832#12 420319832#13 420319834#0 420319834#1 420319834#2 420319831#1 421116789#0 421116789#1 421116789#2 37624370#1 421116788 221688254 222246285#0 222246285#1 222246285#2 221696386#0 221696386#1 221696386#2 221696386#3 221696386#4 221696386#5 221696386#6 221696386#7 221696386#8 221696386#9 497257926#0 497257926#1 497257926#2 497257926#3 497257926#4 222246539#0 222246539#1 552015559#0 552015559#1" />
    </vehicle>
    <vehicle depart="53.39" departLane="best" id="veh123" type="veh_passenger">
        <route edges="-573838648 46835370#0 46835370#1 46835370#2 223185218#1 223185218#2 5680167#6 -5680049#1 -5680049#0 227064517 -420570150 -46121844#2 -46121844#1 -46121844#0 -5678318 46121868 221759319 221759330#0 221759330#1 221759330#2 420567582 420567577 420567578 420567573 420567579 420567575 221603657 420567576 420567580 420567572 420567574 420567581 420880629 222254955 420880633 221759331#1 421151334#1 420880044 420880042#0 420880042#1 46865766 226998579 497251282 27524495" />
    </vehicle>
    <vehicle depart="53.83" departLane="best" id="veh124" type="veh_passenger">
        <route edges="46865765#4 46865765#5 5679708#7 5679708#8 5679708#9 5680742#10 5680742#11 5680742#12 5680742#13 221696386#5 221696386#6 221696386#7 221696386#8 221696386#9 497257926#0 497257926#1 497257926#2 497257926#3 497257926#4 107391104#0 107391104#1 107391104#3 107391104#4 107391104#5 107391104#7 107391104#8 107391104#9 107391104#11 107391104#12 107391104#13 107391104#14 107391104#15 107391104#16 107391104#17 107391104#18 107391104#19 107391104#20 107391104#21 107391104#22 107391104#23 107391104#24 107391104#25 107391104#26 107391104#27 493933673#0 493933673#1 420512627 110155730#0 110155730#2 -275389181 34452219 5678195#0 5678195#1 5678195#2 222246978 46121867#0 46121867#1 46121855 46121864#1 46121864#2 46820140 221759319 221731898#0" />
    </vehicle>
    <vehicle depart="55.56" departLane="best" id="veh128" type="veh_passenger">
        <route edges="-239626769#2 -239626769#1 -239626769#0 239626765 -239626768 -232270204 -420886409 -420886410#0 420886411 222248832#1 222248832#2 222248832#3 5676937 5675963#0 5675963#1 5675963#2 5675963#3 5675963#4 5675963#5 5675963#6 5675963#7 5675963#8 5675963#9 460584836#0 460584836#1 460584837#1 460584837#2 460584837#3 654744274#0 654744274#1 654744274#2 654744274#3 654744274#4 654744274#5 654744274#6 654744274#7 227064552 440633451 421149634 421149636#0 421149636#1 108166470" />
    </vehicle>
    <vehicle depart="57.73" departLane="best" id="veh133" type="veh_passenger">
        <route edges="46786494 46786495 -5681577#2 46774534#3 46774534#4 46774534#5 46774534#6 46774534#7 46774534#8 420304899 420319832#0 420319832#1 420319832#2 420319832#3 420319832#4 420319832#5 420319832#6 420319832#7 420319832#8 420319832#9 420319832#10 420319832#11 420319832#12 420319832#13 420319834#0 420319834#1 420319834#2 420319831#1 421116787#0 421116787#1 421116787#2 421116787#3 421116785 420319836#0 420319836#1 420319836#2 420319836#3 680852624 221759333#0 221759333#1 497254142 542169858 420875685 420875672 420875656#0 420875656#1 420875678 420875696 542169861#0 542169861#1 420883011 222251427 420883013 -420880630 -420880632 -421151334#1 -421151334#0 420883006 221759332 500269691 308331246 -524340771#7 -524340771#6 -524340771#4 -524340771#3 -524340771#2 -524340771#1 -524340771#0 -587355787#3 -587355787#2 -587355787#1 -587355787#0 -23334088 -420346447#2 -420346447#1 -420346447#0 -420346446 -420346445 -420346448#3 -420346448#2 -420346448#1 660084150#2" />
    </vehicle>
    <vehicle depart="64.25" departLane="best" id="veh148" type="veh_passenger">
        <route edges="-25198746#0 440498211 123001156#0 123001156#1 123001156#2 123001156#3 450814751 40416345 587355787#2 587355787#3 524340771#0 524340771#1 524340771#2 524340771#3 524340771#4 524340771#6 524340771#7 587355786 222254952#0 222254952#1 40416344#0 40416344#1 5680646 46137501#1 455014440#0 455014440#1 221723367 420880635 288862240#0 288862240#1 288862240#2 288862240#3 288862240#4 288862240#5 -654744274#6 -654744274#5 -654744274#4 -654744274#3 -654744274#2 -654744274#1 -654744274#0 -654744279 -5675523 -464137215 -574211884 -5674502#3 -5674502#2 -5674502#1 154513049#0 154513049#1 5680476#1 5680476#2" />
    </vehicle>
    <vehicle depart="65.98" departLane="best" id="veh152" type="veh_passenger">
        <route edges="5677438#1 5677205#1 -5678262#1 -5678262#0 -221753936#5 -221753936#4 -221753936#3 -221753936#2 -221753936#1 5678434 5679887#0 5679887#1 5679887#2" />
    </vehicle>
    <vehicle depart="68.15" departLane="best" id="veh157" type="veh_passenger">
        <route edges="-46835364 46835336#17 46835336#18 46835336#19 46835336#20 5681787#0" />
    </vehicle>
    <vehicle depart="69.46" departLane="best" id="veh160" type="veh_passenger">
        <route edges="-221585918#12 -221585918#11 -221585918#10 -221585918#9 5681577#0 5681577#1 5681577#2 5681577#3 5681577#4 5681577#5 221585909#0 221585909#1 221585910 -221759317#3 5676262#7" />
    </vehicle>
    <vehicle depart="69.89" departLane="best" id="veh161" type="veh_passenger">
        <route edges="221607366#0 221607366#1 -420884508 -46818901 46818902#0 46818902#1 40131509 40711968#0 40711968#1 206610786#5 206610786#6 206610786#7 206610786#10 206610786#13 206610786#14 206610786#15 206610786#16 206610786#17 206610786#18 206610786#19 497257600 497257603#0 497257603#1 497257603#2 497257603#3 497257603#4 497257603#5 221585914#26 5681884" />
    </vehicle>
    <vehicle depart="70.32" departLane="best" id="veh162" type="veh_passenger">
        <route edges="5677620#1 46863844#8 46863844#9 46863844#10 46863844#11 46863844#12 46863844#15 227074799#3 227074799#4 450814751 40416345 587355787#2 587355787#3 524340771#0 524340771#1 524340771#2 524340771#3 524340771#4 524340771#6 524340771#7 587355786 222254952#0 222254952#1 222254955 420880633 221759331#1 421151334#1 420880634 420880630 420883015 496984337 420883012 420883010 420875688 420875687 204843025#0 204843025#1 542169859 420875693#1 420875693#2 221759326 496980629#0 496980629#1 420319835#0 420319835#1 315569175#0 315569175#1 315569175#2 315569175#3 315569175#4 315569175#5 315569175#6 420315111#0 420315111#1 421084097 420304910#0 420304910#1 420304910#2 46786508 46786501 5679904#4" />
    </vehicle>
    <vehicle depart="71.63" departLane="best" id="veh165" type="veh_passenger">