<routes xmlns:xsi="http://www.w3.org/2001/XMLSchema-instance" xsi:noNamespaceSchemaLocation="http://sumo.dlr.de/xsd/routes_file.xsd">
    <vType id="moto_motorcycle" vClass="motorcycle" />
    <vehicle depart="0.00" departLane="best" id="moto0" type="moto_motorcycle">
        <route edges="421755067#0 421755067#1 421755066 221723366 420880048 468009828 -5679420 420512627 110155730#0 110155730#2 421754837 511768217 456391963#0 456391963#1 456391963#2 110155732 420571190#1 46788744#0 46788744#1 46788744#2 -68523775#1 -68523775#0 626315789#0 626315789#1 626315789#2" />
    </vehicle>
    <vehicle depart="0.68" departLane="best" id="moto1" type="moto_motorcycle">
        <route edges="451910413#0 451910413#1 451910413#2 451910413#3 221585908#3 221585908#4 221585908#5" />
    </vehicle>
    <vehicle depart="1.36" departLane="best" id="moto2" type="moto_motorcycle">
        <route edges="-232270198#0 -587355743 -239626765 -5676705 239626764#0 239626764#1" />
    </vehicle>
    <vehicle depart="2.73" departLane="best" id="moto4" type="moto_motorcycle">
        <route edges="5679904#5 5679904#6 5679904#7 221585917#2 46865764#4 46865764#5 46865764#6 46865764#7 46865764#8 46865764#9 46865764#10 5680120#6 221585908#5" />
    </vehicle>
    <vehicle depart="3.41" departLane="best" id="moto5" type="moto_motorcycle">
        <route edges="5680024#12 473475837#1 -46863691#4 -46863691#3 -46863691#1 -46863691#0 516664556#0 516664556#1 440633375 421121608 -420567578 -420567577 -420567582 46863780 460576113 463533917 227064523#1 227064523#2 227064523#3 227064523#4 227064523#5 227064523#6 227064522#0 227064522#1 227064522#2 227064522#3 183916221#3 183916221#4 5678784#10" />
    </vehicle>
    <vehicle depart="4.09" departLane="best" id="moto6" type="moto_motorcycle">
        <route edges="-37793000#5 -37793000#2 -37793000#0 680830803 420346486#0 420346486#1 420346488#0 420346488#1 420346488#2 420346490#0 420346490#1 420346490#2" />
    </vehicle>
    <vehicle depart="4.78" departLane="best" id="moto7" type="moto_motorcycle">
        <route edges="-587067526#0 221696377#0 221696377#1 496980629#1 420319835#0 227064531#1 227064531#2 222246284 221570521#0 221570521#1 38341528#1 5680880#3" />
    </vehicle>
    <vehicle depart="6.14" departLane="best" id="moto9" type="moto_motorcycle">
        <route edges="37523532#0 37523532#1 68523771 5681396 40178577#0 40178577#1 46788744#2 222247847#0 222247847#1 222247847#2 -420886405 -222258273#8 -222258273#7 -222258273#6 -222258273#5 -222258273#4 -222258273#3 5677585#0" />
    </vehicle>
    <vehicle depart="6.82" departLane="best" id="moto10" type="moto_motorcycle">
        <route edges="40416344#0 40416344#1 5680646 46137501#1 455014440#0 455014440#1 221723367 420880635 -5682006 107391104#23 107391104#24" />
    </vehicle>
    <vehicle depart="8.19" departLane="best" id="moto12" type="moto_motorcycle">
        <route edges="-227074781#19 151471700 -219964428#2 -219964428#0 -221585918#10 -221585918#9 -221585918#8 5680361#0 5680361#1 497256597 497256596 420304895 420304902#1 46786492 46786493" />
    </vehicle>
    <vehicle depart="8.87" departLane="best" id="moto13" type="moto_motorcycle">
        <route edges="46179211#3 598435630 5677903#0 5677903#1 68325081 420571181 420572573 221696387 46788735 495315405#0 495315405#1 495315400" />
    </vehicle>
    <vehicle depart="10.23" departLane="best" id="moto15" type="moto_motorcycle">
        <route edges="5678215#1 -5678101#2 -5678101#1 -5678101#0 -221725602#3 -221725602#1 -221725599#1 -221725599#0 -219964442#1 5679548#1 221725601#0" />
    </vehicle>
    <vehicle depart="10.91" departLane="best" id="moto16" type="moto_motorcycle">
        <route edges="5679887#2 5679887#3 -46818904#19 -46818904#18 5678442#28 5678442#29 5678442#31 5678442#32 227064529#0 5679826" />
    </vehicle>
    <vehicle depart="12.28" departLane="best" id="moto18" type="moto_motorcycle">
        <route edges="545291572#0 545291572#1 210311245 464255705 221694583#0 221694583#1 440633365 440633365-AddedOffRampEdge 455211317#0 455211317#1 455211317#2 221694584 46121855 46121864#1 46121864#2 46820140 221759319 221759330#0 221759330#1" />
    </vehicle>
    <vehicle depart="12.96" departLane="best" id="moto19" type="moto_motorcycle">
        <route edges="222251427 -334341973#3 -334341973#2 -334341973#1 -334341973#0 -276202770 288862241#1 5678927#0 288862240#1 288862240#2 288862240#3 288862240#4 288862240#5 -654744274#6 -654744274#5 -654744274#4 -654744274#3 -654744274#2 -497253780#3 -497253780#2 -497253780#1 -497253780#0 -37394900" />
    </vehicle>
    <vehicle depart="13.64" departLane="best" id="moto20" type="moto_motorcycle">
        <route edges="221586638#5 221586638#6 221586638#7 221586638#8 221586638#9 475559459#3 475559459#4 5676268 276050436" />
    </vehicle>
    <vehicle depart="15.69" departLane="best" id="moto23" type="moto_motorcycle">
        <route edges="-420882994 145079213#1 145079213#2 347014804#3 -420567580 -420567576 -221603657 -420567575 37396284 455014438 420572575 221604539 222248833 46121867#0 46788758 324751028" />
    </vehicle>
    <vehicle depart="16.37" departLane="best" id="moto24" type="moto_motorcycle">
        <route edges="-78288188#0 46818468#0 46818468#1 46818468#2 497253780#7 497253780#8 682402389 682402388 497253779 682402640 206610786#0 206610786#1 206610786#4 46863648#0 46863648#1 46863648#2 46863648#3" />
    </vehicle>
    <vehicle depart="17.74" departLane="best" id="moto26" type="moto_motorcycle">
        <route edges="37183340#3 420315111#1 421084097 420304910#0 420304910#1 5679904#5 5679904#6 5679904#7 5679904#8 5679904#9 5679904#11 5679904#12 5679904#13 5679904#14 5679904#15 5680120#5 -46865764#10" />
    </vehicle>
    <vehicle depart="18.42" departLane="best" id="moto27" type="moto_motorcycle">
        <route edges="227074790#0 46121850#1 227074768 222254951#1 451962063 37396284 455014438 420572575 221604539 222248833 -221604537#1 -221604537#0 46121857" />
    </vehicle>
    <vehicle depart="19.78" departLane="best" id="moto29" type="moto_motorcycle">
        <route edges="-227064555#1 5679765 537983603#0 537983603#1 515885162#0 515885162#1 515885162#2 515885162#3 515885162#4 658936633#3 658936633#4 658936633#5 -420584217 -221759323#1 -221759323#0 -420584216 -227064556#5 250453883#1 23334065#0" />
    </vehicle>
    <vehicle depart="21.15" departLane="best" id="moto31" type="moto_motorcycle">
        <route edges="-497257603#9 -497257603#8 221585914#26 221585914#27 221585914#28 221585914#29 587355768 221585907#0 221585907#1 221585907#2 221585907#3 -221753935 -221753949#1 -221753949#0 227064529#0 227064529#1 497257602 590201148 500452656#0 46818904#15" />
    </vehicle>
    <vehicle depart="21.83" departLane="best" id="moto32" type="moto_motorcycle">
        <route edges="524340776#10 5676489#5 5680039 221601322#10 221601322#11 221601322#12 409285510#4 37447362#0 68523758 421118179 421118177#0 421118177#1 46137552 295384457#0 295384457#1 420583316#0 420583316#1 420583307#1 420583309#0 420583309#1 420583304#1 515885162#3 515885162#4 515885162#5 515885162#6 501646256 127739254 348456697#0 348456697#1 495491359#0 495491359#1 -420318559" />
    </vehicle>
    <vehicle depart="22.51" departLane="best" id="moto33" type="moto_motorcycle">
        <route edges="43242499#4 451380987#3 451380987#4 227074808 227074807#0 227074807#1 227074807#2 420346484#0 420346484#1 420346484#2 420346480#0 420346480#1 420346480#2" />
    </vehicle>
    <vehicle depart="23.19" departLane="best" id="moto34" type="moto_motorcycle">
        <route edges="497258437#0 221597280#4 221597280#5 221597280#6 221597280#7 221597280#8 221597280#9 221597280#10 221597280#11 221597280#12 221597280#13 221597280#14 221597280#15 221586638#0 221586638#1 221586638#2 221586638#3 221586638#4 221586638#5" />
    </vehicle>
    <vehicle depart="23.88" departLane="best" id="moto35" type="moto_motorcycle">
        <route edges="5675915#1 -420880049#0 -46121853#2 -46121853#1 -46121853#0 500534706 110155730#0 110155730#2 421754837 511768217 456391963#0 456391963#1 456391963#2 110155732 420571190#1 496990716 46121873#0 46121873#1 46121873#2 -5676937 46818464 68523753 46818457-AddedOnRampEdge 46818457 420571185 221605484#1 222246983#0 222246983#1" />
    </vehicle>
    <vehicle depart="25.24" departLane="best" id="moto37" type="moto_motorcycle">
        <route edges="-5680476#3 -338280635 5674502#3 574211884 -5678919#1 -5678919#0 78288188#0 78288188#1 78288188#2 78288188#3 78288188#4 5705730 46141624 5677924 46818902#1 -227074775#1 -227074775#0 -5705730 -78288188#4" />
    </vehicle>
    <vehicle depart="25.92" departLane="best" id="moto38" type="moto_motorcycle">
        <route edges="46137556 68523775#0 68523775#1 -46788744#2 -46788744#1 -46788744#0 420571185 221605484#1 68325081 420571181 420571192 420571183 78288187#0 78288187#1 421120405 227074797#0 227074797#1 464255705 221694583#0 221694583#1" />
    </vehicle>
    <vehicle depart="26.60" departLane="best" id="moto39" type="moto_motorcycle">
        <route edges="5682095#3 37447362#0 68523758 5677899#1 5677899#2 68523776-AddedOnRampEdge 68523776 97010378#0 452286946#1 -452286949#1 -497382067#1 -497382067#0 -451915594#1 -451915594#0 222258277 -451915592 -451915590 -496982424 -451915588 -222251431 -420880043 46865766 226998579 46865767#0 222266013 620132897 420883003 221759331#1 421151334#1 420880634 420880630" />
    </vehicle>
    <vehicle depart="28.65" departLane="best" id="moto42" type="moto_motorcycle">
        <route edges="154513056 -239626767#0 -232270204 25564006#0 25564006#1 25564006#2 222248831#0 222248831#1 222248831#2 25564048#1 46137554#0 46137554#1 46137557 455201237#0 455201237#1 495315410 497561531#0 497561531#1 420571192 420571183 78288187#0 78288187#1 421120405 227074797#0 227074797#1 464255705 221694583#0 221694583#1 5681796#0 5681796#1 5681796#2 -46121844#2 -46121844#1 -46121844#0 5677340#0 5678784#26 5678784#27" />
    </vehicle>
    <vehicle depart="29.33" departLane="best" id="moto43" type="moto_motorcycle">
        <route edges="654744279 460584837#4 460584837#5 460584837#6 46818468#2 46818468#3 46818468#4 46818468#5 420875699 420875707#0 420875707#1 420875709#0 420875709#1 222246543#2 222246543#3 222246543#4 420626018" />
    </vehicle>
    <vehicle depart="30.01" departLane="best" id="moto44" type="moto_motorcycle">
        <route edges="530569001#5 530568994 -432554453#2 -432554453#1 -432554453#0 221725601#0 221725601#1 221725601#2 221725601#3 -227074765#3 -227074765#2 -227074765#1 -227074765#0 -68523760#2 -68523760#1 -68523760#0 -471943034#4 -471943034#3 -471943034#2 276083328 276083330#0 276083330#1" />
    </vehicle>
    <vehicle depart="30.70" departLane="best" id="moto45" type="moto_motorcycle">
        <route edges="46863669 324751018 324751025 -5680631#3 5680756#0 5680756#1 46121854 500534706 110155730#0 110155730#2 421754837 511768217 456391963#0 456391963#1 456391963#2 110155732 420571190#1 46788744#0 46788744#1 46788744#2 222247847#0 222247847#1 222247847#2 420886412 420886410#1 -5676939#3" />
    </vehicle>
    <vehicle depart="31.38" departLane="best" id="moto46" type="moto_motorcycle">
        <route edges="5681089 -232270200#1 -232270200#0 -587355743 -239626768 -232270204 -420886409 -420886410#0 -222247847#2 -222247847#1 -222247847#0 37523532#0 37523532#1 68523771 68523772 68523779#1" />
    </vehicle>
    <vehicle depart="32.06" departLane="best" id="moto47" type="moto_motorcycle">
        <route edges="5675963#0 5675963#1 5675963#2 5675963#3 -5673953 46817493#16 46818464 68523753 46818457-AddedOnRampEdge 46818457 420571185 221605484#1 222246983#0 222246983#1 222246981#0 222246981#1 421755067#0 421755067#1 421755066 221723366 619552358 5681199#0 5681199#1 5681199#2 5681199#3 145079213#2 347014804#3" />
    </vehicle>
    <vehicle depart="33.43" departLane="best" id="moto49" type="moto_motorcycle">
        <route edges="221759329 5680880#0 5680880#1 5680880#2 5680880#3 5680880#4 421116791 535252392 421116792 315569175#0 315569175#1 315569175#2 315569175#3 315569175#4 315569175#5 315569175#6 420315113#0 420315113#1 420319832#9 46786525" />
    </vehicle>
    <vehicle depart="34.79" departLane="best" id="moto51" type="moto_motorcycle">
        <route edges="154513057 -239626764#0 5676705 239626765 -239626768 -232270204 25564006#0 25564006#1 25564006#2 222248831#0 222248831#1 222248831#2 46819926#0 110155729 46818451#1-AddedOnRampEdge 46818451#1 46121872" />
    </vehicle>
    <vehicle depart="35.47" departLane="best" id="moto52" type="moto_motorcycle">
        <route edges="46835336#13 5680024#3 5680024#4 5680167#14 -23334074#0 -639805149 -420569583 -421120403 -46121849 420572568 5682051 511896312 420572567 46835353 460576117 46835354 46835346" />
    </vehicle>
    <vehicle depart="37.52" departLane="best" id="moto55" type="moto_motorcycle">
        <route edges="46863851#0 46863855 46863840#0 46863840#1" />
    </vehicle>
    <vehicle depart="38.20" departLane="best" id="moto56" type="moto_motorcycle">
        <route edges="-460126495#0 46788738 5680993 46788761 347297472 46121861" />
    </vehicle>
    <vehicle depart="38.88" departLane="best" id="moto57" type="moto_motorcycle">
        <route edges="420875709#1 227074779#0 227074779#1 495491356#1 495491356#2 221696386#8 221696386#9 221696386#10 221696386#11 221696386#12 221696386#13 221696386#14 221696386#15 -68325083#2 -68325083#1 -68325083#0 -227074775#2 -227074775#1 -227074775#0 -5705730 5679460#0 39974314" />
    </vehicle>
    <vehicle depart="40.93" departLane="best" id="moto60" type="moto_motorcycle">
        <route edges="227064522#1 227064522#2 5681030#6 46863844#18 46863844#19 46863844#20 46863844#21 46863844#22 46863844#23 222254951#0 222254951#1 451962063 37396284 455014438 420572575 221604539 222248833 -222246978 -386201385 -5676917" />
    </vehicle>
    <vehicle depart="41.61" departLane="best" id="moto61" type="moto_motorcycle">
        <route edges="46121844#1 46121844#2 46121844#3 37575728#0 37575728#1 37575728#2 221694583#0 221694583#1 440633365 440633365-AddedOffRampEdge 455211317#0 455211317#1 455211317#2 221694584 221604538 5679842 440633375 421121608 -420567578 -420567577 -420567582 -23334074#2 -23334074#1 -23334074#0 -639805149 -420569583 -421120403 -46121849 420572568 5682051 511896312 420572567 420572564 46121848#0 46121848#1 46121848#2 46121848#4" />
    </vehicle>
    <vehicle depart="43.66" departLane="best" id="moto64" type="moto_motorcycle">
        <route edges="479748557#13 222246286#5 222246286#6 221585917#0" />
    </vehicle>
    <vehicle depart="46.39" departLane="best" id="moto68" type="moto_motorcycle">
        <route edges="221585915 276043641#0 276043641#1 5680589#0 5680589#1 5680589#2 5680589#3 5680589#4 221597280#15 221585906#0 221585906#1 221585906#2 221585906#3 221585906#4 221585906#5 221585906#6 221585918#1 221585918#2 221585918#4 221585918#5 221585918#6 221585918#7 221585918#8 221585918#9" />
    </vehicle>
    <vehicle depart="47.07" departLane="best" id="moto69" type="moto_motorcycle">
        <route edges="420346486#1 420346488#0 420346488#1 420346488#2 420346490#0 420346490#1 420346490#2 420346490#3 491160987 5679762#6 5679762#7 5679762#8 40416342#1 40416346#1" />
    </vehicle>
    <vehicle depart="48.43" departLane="best" id="moto71" type="moto_motorcycle">
        <route edges="221759318#0 5678784#24 5678784#25 5678784#26 5678784#27 440606690 -227064517 39015290#0 39015290#1 39015290#2 278135785#0 278135785#1 46819907 5680220#1 440633442 451934311 486010416 557041245 440633414 46819926#0 110155729 46818451#1-AddedOnRampEdge 46818451#1" />
    </vehicle>
    <vehicle depart="49.11" departLane="best" id="moto72" type="moto_motorcycle">
        <route edges="535252377 221570521#1 38341528#1 38341528#2 38341528#3 38341528#4 38341528#5 479748557#11" />
    </vehicle>
    <vehicle depart="49.80" departLane="best" id="moto73" type="moto_motorcycle">
        <route edges="5678101#6 221446578#2 219964428#10 219964428#11 219964428#12 219964428#13 219964428#14 432552968 -227074781#6 -227074781#5 5680742#3 489437291 489437292#0" />
    </vehicle>
    <vehicle depart="50.48" departLane="best" id="moto74" type="moto_motorcycle">
        <route edges="-5677150#1 -154513050#0 5674502#1 5674502#2 5674502#3 574211884 464137215 5675523 654744279 654744274#0 654744274#1 654744274#2 654744274#3 654744274#4 654744274#5 107391104#17 107391104#18 107391104#19 107391104#20 107391104#21 107391104#22 107391104#23 107391104#24 107391104#25 107391104#26" />
    </vehicle>
    <vehicle depart="51.84" departLane="best" id="moto76" type="moto_motorcycle">
        <route edges="608794060#0 46863844#19 46863844#20 46863844#21 46863844#22 5678366#1 5678366#2 5678366#3 5678366#4 5678366#5 5678366#6" />
    </vehicle>
    <vehicle depart="52.53" departLane="best" id="moto77" type="moto_motorcycle">
        <route edges="221777109#10 34593472#9 34593472#10 34593472#11 -227074781#3 -227074781#2 -227074781#1 -227074781#0 -440633426 587355773 -221688754#4 -221688754#3" />
    </vehicle>
    <vehicle depart="53.21" departLane="best" id="moto78" type="moto_motorcycle">
        <route edges="-350687715#1 -350687715#0 -221688255#1 -221688255#0 497256109 221696378#0 221696378#1 542169856#1 542169856#2 542169856#3 221586638#12 535252377 221570521#1 221570521#2 221570521#3 221570521#4 221570521#5" />
    </vehicle>
    <vehicle depart="54.57" departLane="best" id="moto80" type="moto_motorcycle">
        <route edges="5680703#7 5680703#8 5680704 495491356#1 495491356#2 221696386#8 221696386#9 221696386#10 221696386#11 221696386#12 221696386#13 221696386#14 221696386#15 421123037 587355763 587355765 -221795719#1 -221795719#0 -46818902#0 420884512 5678929#0 5678929#1 46817511#1" />
    </vehicle>
    <vehicle depart="55.25" departLane="best" id="moto81" type="moto_motorcycle">
        <route edges="-658936644#16 -658936644#0 -658936639#1 -658936639#0 -420318561 -420318559 -420583304#1 -420583304#0 -420583309#0 -420583307#1 -420583307#0 -420583316#0 -295384457#1 -295384457#0 -420583311 420583298#0 420583298#1 5676379#0 5676379#1 5677899#2 68523776-AddedOnRampEdge 68523776 221731900 5675825#0 5675825#1 420583320 43315004#0 43315004#1 -526209963#2 -526209963#1" />
    </vehicle>
    <vehicle depart="56.62" departLane="best" id="moto83" type="moto_motorcycle">
        <route edges="227074781#19 5680361#0 5680361#1 497256597 497256596 420304895 420304902#1 420304892" />
    </vehicle>
    <vehicle depart="57.30" departLane="best" id="moto84" type="moto_motorcycle">
        <route edges="5674356 122625703 122625703-AddedOffRampEdge 46835357#0 5673865 5673865-AddedOffRampEdge 671273490 -5682051 -420572568 46121849 421120403 420569583 639805149 46835336#13 46835336#14 46835336#15 46835336#17 46835336#18 46835336#19 46835336#20 46835336#21 46835336#22 46835336#23 5680085#1 5680085#2 5681691#3 5681691#4 5681691#5 46835368#1 46835368#2" />
    </vehicle>
    <vehicle depart="59.35" departLane="best" id="moto87" type="moto_motorcycle">
        <route edges="222258266#1 222258266#2 232270204 239626768 -239626765 -5676705 239626766" />
    </vehicle>
    <vehicle depart="61.39" departLane="best" id="moto90" type="moto_motorcycle">
        <route edges="432552980#1 5678442#13 5678442#14 5678442#15 5678442#16 5678442#17 5678442#18 5678442#19 5678442#20 5678442#21 5678442#22 5678442#23 5680637#6" />
    </vehicle>
    <vehicle depart="62.08" departLane="best" id="moto91" type="moto_motorcycle">
        <route edges="-38341527#0 515885152#3 515885152#4 515885152#5 618977199#0 618977199#1 421116794 420319835#0 420319835#1 315569175#0 542169856#1 542169856#2 542169856#3 542169856#4 542169856#5 542169856#6 483704094#11 483704094#12 475559459#6 221759321#2" />
    </vehicle>
    <vehicle depart="63.44" departLane="best" id="moto93" type="moto_motorcycle">
        <route edges="46786486 5681577#3 420304912#0 420304912#1 497400544 -5678115#3 -5678115#2 -5678115#1 -5678115#0 -636728275 -5678101#16 -5678101#15 -5678101#14 -5678101#13 -5678101#12 -5678101#11 -5678101#10 -5678101#9 -5678101#8 5679171#3" />
    </vehicle>
    <vehicle depart="64.80" departLane="best" id="moto95" type="moto_motorcycle">
        <route edges="639118784#1 639118784#2 639118784#3 276024637#23 5680983#0 -471943034#3 -471943034#2 -471943034#1 -471943034#0 -471943031#4 -471943031#3" />
    </vehicle>
    <vehicle depart="65.49" departLane="best" id="moto96" type="moto_motorcycle">
        <route edges="-46772625#3 -46772625#2 -46772625#1 -46772625#0 -23042416#0 -420875713#0 -315569176#0 221759333#0 221759333#1 497254142 542169858 420875685 420875672 420875656#0 420875656#1 420875678 420875696 542169861#0 542169861#1 420883011 222251427" />
    </vehicle>
    <vehicle depart="66.17" departLane="best" id="moto97" type="moto_motorcycle">
        <route edges="221753947 5681678#0 5681678#1 5681678#2 5681678#3 315569175#5 315569175#6 420315111#0 420315111#1 421084097 221585906#3 221585906#4 420304899 420319832#0 420319832#1 420319832#2 420319832#3 420319832#4 420319832#5 420319832#6 420319832#7 5678753" />
    </vehicle>
    <vehicle depart="66.85" departLane="best" id="moto98" type="moto_motorcycle">
        <route edges="5677585#4 5677949#2 5677949#3 -654744274#3 -654744274#2 -654744274#1 -654744274#0 -654744279 46817493#6 -5674982 -222258273#1 -222258273#0 5675523" />
    </vehicle>
    <vehicle depart="67.53" departLane="best" id="moto99" type="moto_motorcycle">
        <route edges="460584836#1 460584837#1 460584837#2 460584837#3 460584837#4 460584837#5 460584837#6 460584837#7 -661684796 5674854" />
    </vehicle>
    <vehicle depart="68.90" departLane="best" id="moto101" type="moto_motorcycle">
        <route edges="221696381#0 221696381#1 221696381#2 497256110#0 497256110#1 497256109 221696378#0 221696378#1 542169856#1 542169856#2 542169856#3 221586638#12 535252377 221570521#1 221570521#2 221570521#3 483704094#9 483704094#10" />
    </vehicle>
    <vehicle depart="69.58" departLane="best" id="moto102" type="moto_motorcycle">
        <route edges="221602120 227002831#1 227002831#2 227002831#3 672080277 672080271 672080274 221602119 5678784#0 5678784#1 5678784#2 5678784#3 5678784#4 5678784#5 5678784#6 5678784#7 5679758#5 227064534#1 227064534#2 227064534#4 227064534#5" />
    </vehicle>
    <vehicle depart="70.26" departLane="best" id="moto103" type="moto_motorcycle">
        <route edges="524340771#4 524340771#6 524340771#7 587355786 222254952#0 222254952#1 -420880629 -420567581 -420567574 -420567572 -420567580 -420567576 -221603657 -420567575 -420567579 -420567573 -420567578 -420567577 -420567582 46863780 460576113 463533917 227064523#1 227064523#2 227064523#3 227064523#4 227064523#5" />
    </vehicle>
    <vehicle depart="70.94" departLane="best" id="moto104" type="moto_motorcycle">
        <route edges="-227064558 -488030094 -23168577#1 -23168577#0 5680864 25564091#0 25564091#1 25564091#2 122660424#1 545291572#0 545291572#1 210311245 464255705 221694583#0 221694583#1 5681796#0 5681796#1 5681796#2 46121844#3 -227064517 39015290#0 39015290#1 39015290#2 278135785#0 278135785#1 534164487 278135786" />
    </vehicle>
    <vehicle depart="71.63" departLane="best" id="moto105" type="moto_motorcycle">
        <route edges="5680880#3 5680880#4 421116791 535252392 421116792 421116789#0 421116789#1 421116789#2 37624370#1 421116788 350687715#0 350687715#1 587355756 -5679875#1" />
    </vehicle>
    <vehicle depart="72.31" departLane="best" id="moto106" type="moto_motorcycle">
        <route edges="5680085#2 5681691#3 5681691#4 5682012#0 46835370#1 46835370#2 46835370#3 46835370#4 46835367#0 46835367#1 5680167#9 5680167#10 5680167#11 5680167#12 221759318#3 221759318#4 46835336#15 -5679879" />
    </vehicle>
    <vehicle depart="72.99" departLane="best" id="moto107" type="moto_motorcycle">
        <route edges="5681892 5675255 221696378#1 315569175#1 315569175#2 450610492#24 450610492#25 450610492#26 450610492#27 221688252 5677037#0 5677037#1 5677037#2 5680992#4 5679708#19" />
    </vehicle>
    <vehicle depart="73.67" departLane="best" id="moto108" type="moto_motorcycle">
        <route edges="5676353#1 525679230#4 525679230#5 5679762#2 5679762#3 5679762#4 5679762#6 5679762#7 -587355787#0 -23334088 -420346447#2 -420346447#1 -420346447#0 -25198746#3 -25198746#2 -25198746#1 -25198746#0 440498211 123001156#0 123001156#1 123001156#2 573626193" />
    </vehicle>
    <vehicle depart="75.04" departLane="best" id="moto110" type="moto_motorcycle">
        <route edges="311764602 311764602-AddedOffRampEdge 591821087 278135787 280122809#0 280122809#1 280122809#2 280122809#3 227064517 37575728#0 37575728#1 37575728#2 221694585#0 221694585#1 525646871#0 525646871#1" />
    </vehicle>
    <vehicle depart="76.40" departLane="best" id="moto112" type="moto_motorcycle">
        <route edges="227074799#1 227074799#2 227074799#3 227074799#4 347014806#0 347014806#1 347014806#2 347014805#0 347014805#1 347014805#2 347014805#3 347014805#4 347014805#5 347014805#6 5678366#3" />
    </vehicle>
    <vehicle depart="77.08" departLane="best" id="moto113" type="moto_motorcycle">
        <route edges="5676800 347014805#0 347014805#1 347014805#2 347014805#3 347014805#4 347014805#5 347014805#6 347014804#0 46865768#2 641915866#3" />
    </vehicle>
    <vehicle depart="77.77" departLane="best" id="moto114" type="moto_motorcycle">
        <route edges="68523754#2 495315405#0 495315405#1 525646871#0 525646871#1 420571191 -420572572 -497561531#0 -495315410 -455201237#1 -455201237#0 -675320846 -46137554#1 -46137554#0 46137555#0 545291578#1 545291578#1-AddedOffRampEdge 46137556 222258266#0 222258266#1 222258266#2 232270204 239626768 -239626765 -5676705 239626766" />
    </vehicle>
    <vehicle depart="79.81" departLane="best" id="moto117" type="moto_motorcycle">
        <route edges="-227074786#7 -227074786#6 -227074786#5 530568998#3 460779250#8 460779250#9 460779250#10 5707635#5" />
    </vehicle>
    <vehicle depart="80.49" departLane="best" id="moto118" type="moto_motorcycle">
        <route edges="451380982#3 451380982#4 451380982#5 43242499#3 43242499#4 43242499#5 43242499#6 43242499#7 5678277#4 -494221659#5 -494221659#4" />
    </vehicle>
    <vehicle depart="81.86" departLane="best" id="moto120" type="moto_motorcycle">
        <route edges="227064535#6 227064535#7 227064535#8 227064535#9 5676474#1 440498210 25198746#1 25198746#2 25198746#3 464551540#0 464551540#1 464551540#2 464551540#3 123001149#0 123001149#1 123001149#2 123001149#3 123001149#4 111781747#5 111781747#6 111781747#7 451413253#0 451413253#1 451413253#2" />
    </vehicle>
    <vehicle depart="83.90" departLane="best" id="moto123" type="moto_motorcycle">
        <route edges="5678246#2 5678246#3 5676708#0 420346448#2 420346448#3 420346448#4 420346446 420346439 420346447#1 420346447#2 420346444#1 587355787#0 587355787#1 587355787#2 587355787#3" />
    </vehicle>
    <vehicle depart="84.59" departLane="best" id="moto124" type="moto_motorcycle">
        <route edges="46835344#2 -46121848#4 -46121848#2 -46121848#1 -46121848#0 -420572564 -420572567 -420572566 -5682051 -420572568 -420569582#0 46835355#1 5682051 511896312 420572567" />
    </vehicle>
    <vehicle depart="85.27" departLane="best" id="moto125" type="moto_motorcycle">
        <route edges="-497561531#0 -495315410 -455201237#1 5681579#1 5681263#1 37977793 495315410 497561531#0 497561531#1 420572573 221696387 460576120 630677041 630677037 460576121 386201385 222246978 -222248833 -420572574 516664556#0 516664556#1 440633375 421121608 -420567578 -420567577 -420567582 -23334074#2 -23334074#1 -23334074#0 -639805149 -420569583 -421120403 5674349" />
    </vehicle>
    <vehicle depart="85.95" departLane="best" id="moto126" type="moto_motorcycle">
        <route edges="227064513#3 464255706#1 464255706#2 420571187 420571184 -227064517 39015290#0 39015290#1 39015290#2 5678759#1 5678759#2 46835336#26 46835336#27" />
    </vehicle>
    <vehicle depart="87.32" departLane="best" id="moto128" type="moto_motorcycle">
        <route edges="488941121#4 -420584211 -421149636#1 -421149636#0 -421149633 -421149635 -227064552 -654744274#7 -654744274#6 -654744274#5 -654744274#4 -654744274#3 -654744274#2 -497253780#3 -497253780#2 -497253780#1 -497253780#0 -37394900 5679490#0 5679490#1" />
    </vehicle>
    <vehicle depart="88.00" departLane="best" id="moto129" type="moto_motorcycle">
        <route edges="-524340771#7 5681248#0 420883007#1 222266013 620132897 420883003 -420880633 -222254955 40416344#0 40416344#1 5680646 46137501#1 -46788753#3 46121853#5 420880051#1" />
    </vehicle>
    <vehicle depart="88.68" departLane="best" id="moto130" type="moto_motorcycle">
        <route edges="-420318571 221759320#32 221759320#33 221759320#34 221759320#35 221759324#0 542169856#9 542169856#10 542169856#11 542169856#12 420318573 450610492#11 450610492#12 450610492#13 450610492#15" />
    </vehicle>
    <vehicle depart="90.04" departLane="best" id="moto132" type="moto_motorcycle">
        <route edges="-288862241#0 288862242 46772621 334341973#2 334341973#3 496984337 420883012 420883010 420875688 420875687 421149636#0 421149636#1 421118180 420584209 5681491#2" />
    </vehicle>
    <vehicle depart="90.73" departLane="best" id="moto133" type="moto_motorcycle">
        <route edges="5680549 -496982424 -451915588 -222251431 -420880043 -420880040 -420880042#0 -23334090 222279148 -527223926 -221731899 -420880045 -420880037 -420880046#0 -139919720#1 -139919720#0 420880048 46121853#1" />
    </vehicle>
    <vehicle depart="92.77" departLane="best" id="moto136" type="moto_motorcycle">
        <route edges="46817511#3 5676656#6 -221795719#0 46818902#1 40131509 40711968#0 40711968#1 -206610786#4 -206610786#1 -206610786#0 5679437#2 5679437#3 5677949#18 5677949#19 5678147#3 5678147#5 5678147#6" />
    </vehicle>
    <vehicle depart="94.14" departLane="best" id="moto138" type="moto_motorcycle">
        <route edges="658936639#0 658936639#1 658936642#0 221759320#30 221759320#31 -420318569 -420318561 495491359#2 495491358#0 495491358#1 495491358#2" />