<routes xmlns:xsi="http://www.w3.org/2001/XMLSchema-instance" xsi:noNamespaceSchemaLocation="http://sumo.dlr.de/xsd/routes_file.xsd">
    <vType id="veh_passenger" vClass="passenger" />
    <vehicle depart="1.30" departLane="best" id="veh3" type="veh_passenger">
        <route edges="5680199#0 5680199#3 46817513#1 587355760#2 -587355778#3 -587355778#2 -587355778#1 -587355778#0 -68325083#2 -68325083#1 -68325083#0 -227074775#2 -227074775#1 -227074775#0 -5705730 5679460#0 5679460#1 46817493#0 46817493#1 46817493#2 46818468#1 46818468#2 -497253780#6 -497253780#5 -497253780#4 654744274#2 654744274#3 654744274#4 654744274#5 654744274#6 654744274#7 227064552 440633451 421149634 420875672 420875656#0 420875656#1 420875678 420875696 542169861#0 542169861#1 420883011 222251427 420883013 -420880630 -420880632 420880044 420880042#0 420880042#1 46865766 226998579 497251282 680853691 68523765#0 68523765#1 68523765#2 68523765#3 68523765#4 68523765#5 68523765#6 68523765#7 226998578 524340776#5 -43242499#1" />
    </vehicle>
    <vehicle depart="2.17" departLane="best" id="veh5" type="veh_passenger">
        <route edges="-5680631#3 -5680631#2 -5680631#1 -5680631#0 420880046#0 420880046#1 420880045 473475839 527223926 123001160 221759331#1 421151334#1 420880634 420880630 420883015 496984337 420883012 420883010 420875688 420875687 204843025#0 204843025#1 542169859 420875693#1 420875693#2 221759326 496980629#0 496980629#1 421116795#0 421116795#1" />
    </vehicle>
    <vehicle depart="2.60" departLane="best" id="veh6" type="veh_passenger">
        <route edges="-221586639#2 -221586639#1 -221586639#0 -451910414#10 -451910414#9 -46865764#9 -46865764#8 -46865764#7 -46865764#6 -46865764#5 -46865764#4 -46865764#3 -46865764#2 -46865764#0 -497256596 -497256597 46774534#6 46774534#7 46774534#8 420304899 420319832#0 420319832#1 420319832#2 420319832#3 420319832#4 420319832#5 420319832#6 420319832#7 420319832#8 420319832#9 420319832#10 420319832#11 420319832#12 420319832#13 420319834#0 420319834#1 420319834#2 420319831#1 421116787#0 421116787#1 421116787#2 421116787#3 421116785 420319836#0 420319836#1 420319836#2 420319836#3 680852624 221759333#0 221759333#1 497254142 542169858 420875685 -421149633 -421149635 -227064552 -654744274#7 -654744274#6 -654744274#5 -654744274#4 -654744274#3 -654744274#2 -654744274#1 -654744274#0 -654744279 46817493#6 46817493#7 46817493#8 46817493#9 46817493#10 46817493#11 46817493#12 46817493#13 46817493#14 46817493#15 46817493#16 -222248832#3 -222248832#2 -222248832#1 -222248832#0 420886412 420886410#1 232270204 239626768 587355743 232270199 -639763613#1" />
    </vehicle>
    <vehicle depart="3.47" departLane="best" id="veh8" type="veh_passenger">
        <route edges="-5680736 5680167#12 5680167#13 5680167#14 23334074#1 23334074#2 420567582 420567577 420567578 25563870#1 440633379 221605488 5678510 46788758" />
    </vehicle>
    <vehicle depart="3.91" departLane="best" id="veh9" type="veh_passenger">
        <route edges="5677949#19 5678147#3 5678147#5 5678147#6 -206610786#1 -206610786#0 -682402640 -497253779 -682402388 -682402389 -497253780#8 -497253780#7 -46818468#2 -46818468#1 -46818468#0 5678919#0 5678919#1 -574211884 -5678535 -5680476#4 -5680476#3 456244373 308340267#4 308340267#5 308340267#6 -154513049#3" />
    </vehicle>
    <vehicle depart="4.78" departLane="best" id="veh11" type="veh_passenger">
        <route edges="221696386#9 497257926#0 497257926#1 5680703#8 5680704 495491356#1 495491356#2 495491356#3 5676994#10 5676994#11 5676994#12 5676994#13 5676994#14 5676994#15 5676994#16 5676994#17 5676994#18 221696381#0 221696381#1 221696381#2 497256110#0 497256110#1 -497256112 -497256111 221688252 420315112 -221753947 221753950 221753933 221753948#0 221753948#1 221753948#2 -221585913 221585918#0 221585918#1 221585918#2 221585918#4 221585918#5 221585918#6 221585918#7 221585918#8 221585918#9 221585918#10 221585918#11 221585918#12 636728274#0 -636728275 -5678101#16 -5678101#15 -5678101#14 -5678101#13 -5678101#12 -5678101#11 -5678101#10 -5678101#9 -5678101#8 -5678101#7" />
    </vehicle>
    <vehicle depart="5.21" departLane="best" id="veh12" type="veh_passenger">
        <route edges="578129950#1 46863844#22 46863844#23 222254951#0 222254951#1 451962063 420567575 221603657 420567576 420567580 420567572 420567574 420567581 420880629 222254955 420880633 221759331#1 421151334#1 420880044 420880042#0 420880042#1 420880041 420880039 451915588 496982424 451915590 451915592 5677511 483704093 222258277" />
    </vehicle>
    <vehicle depart="6.08" departLane="best" id="veh14" type="veh_passenger">
        <route edges="5678784#10 5678784#11 5678784#12 5678784#13 5678784#14 5678784#15 5678784#16 5678784#17 5678784#18 5678784#19 23334074#2 420567582 420567577 420567578 420567573 420567579 37396284 455014438 420572575 221604539 222248833 -222246978 -386201385 -5676917 -460126498#0 -460126495#0 -46788750 587067518#0 587067518#1 421754839 421121612 37394898#0 37394898#1 37394898#2 37394898#3 37394898#4 37394899#0 37394899#1 37394899#2 37394899#3 37394899#4 37394899#5 37394900 497253780#0 497253780#1 497253780#2 497253780#3 497253780#4 497253780#5 497253780#6 497253780#7 497253780#8 682402389 682402388 497253779 682402640 206610786#0 206610786#1 206610786#4 206610786#5 206610786#6 206610786#7 206610786#10 206610786#13 206610786#14 206610786#15 206610786#16 206610786#17 206610786#18 206610786#19 5677037#22 5677037#23 5677037#24 5677037#25 46818904#14 46818904#15" />
    </vehicle>
    <vehicle depart="6.95" departLane="best" id="veh16" type="veh_passenger">
        <route edges="421084098 183794559#0 183794559#1 183794559#2 183794559#3 5676262#5 -221759328#0 -351479503#3 -351479503#2 -351479503#1 -351479503#0 497259892#0 497259892#1 497259892#2 497259892#3 497259892#4 46774534#0 46774534#1 46774534#2 46774534#3 46774534#4 46774534#5 46774534#6 46774534#7 46774534#8 420304899 420319832#0 420319832#1 420319832#2 420319832#3 420319832#4 420319832#5 420319832#6 420319832#7 420319832#8 420319832#9 420319832#10 420319832#11 420319832#12 420319832#13 420319834#0 420319834#1 420319834#2 420319831#1 421116787#0 421116787#1 421116787#2 421116787#3 421116785 420319836#0 420319836#1 420319836#2 420319836#3 680852624 221759333#0 221759333#1 497254142 542169858 420875685 420875672 420875656#0 420875656#1 420875678 420875696 542169861#0 542169861#1 420883011 222251427 420883013 -420880630 -420880632 222279148 -527223926 -221731899 -420880045 -420880037 -420880046#0 -139919720#1 -139919720#0 500534706 110155730#0 110155730#2 421754837 511768217 456391963#0 456391963#1 456391963#2 110155732 420571190#1 46788744#0 46788744#1 46788744#2 -68523775#1 -68523775#0 626315789#0" />
    </vehicle>
    <vehicle depart="7.38" departLane="best" id="veh17" type="veh_passenger">
        <route edges="222258273#0 222258273#1 5674982 654744290 460584837#3 460584837#4 460584837#5 460584837#6 -46818468#1 -46818468#0 78288188#0 78288188#1 78288188#2 78288188#3 78288188#4 5705730 227074775#0 227074775#1 227074775#2 68325083#0 68325083#1 68325083#2 587355778#0 587355778#1 587355778#2 587355778#3 227074776#0 227074776#1 227074776#2 227074776#3 227074776#4 -227064529#1 -227064529#0 221753949#0 221753949#1 221753936#0 221753936#1 221753936#2 221753936#3 221753936#4 221753936#5 5678262#0 5678262#1 5678262#2 5678262#3 5678262#4 530568988#1 460779250#15 460779250#16" />
    </vehicle>
    <vehicle depart="8.25" departLane="best" id="veh19" type="veh_passenger">
        <route edges="5679567 5680024#4 5680167#14 23334074#1 23334074#2 420567582 420567577 420567578 420567573 420567579 420567575 221603657 420567576 420567580 420567572 420567574 420567581 420880629 222254955 420880633 221759331#1 421151334#1 420880634 420880630 420883015 496984337 420883012 420883010 420875688 420875687 421149636#0 421149636#1 421118180 420584209 420584206 420584207 420584210 483704094#1 46772625#5 46772625#6" />
    </vehicle>
    <vehicle depart="9.12" departLane="best" id="veh21" type="veh_passenger">
        <route edges="-5681578 5681787#1 5680167#8 46835367#2 46835367#3 5678784#27 440606690 -227064517 39015290#0 39015290#1 39015290#2 278135785#0 278135785#1 46819907 5680220#1 440633442 451934311 486010416 557041245 440633414 46819926#0 545291578#1 545291578#1-AddedOffRampEdge 46137556 222258266#0 222258266#1 222258266#2 -420886409 -420886410#0 -420886405 -222258273#8 -222258273#7 -222258273#6 -222258273#5 -222258273#4 -222258273#3 -222258273#2 -222258273#1 -222258273#0 -464137215 -5678919#1 -5678919#0 78288188#0 78288188#1 78288188#2 78288188#3 78288188#4 5705730 46141624 420886403 420884512 420884510 78288186 221607367" />
    </vehicle>
    <vehicle depart="10.42" departLane="best" id="veh24" type="veh_passenger">
        <route edges="46818905#4 46818905#5 46818905#6 -37394899#2 -37394899#1 -37394899#0 -37394898#4 -37394898#3 -37394898#2 -37394898#1 -37394898#0 421121616 421121610 41381890#0 41381890#1 41381890#2 46788750 460126494 460126495#1 460126498#1 386201385 222246978 -222248833 -420572574 516664556#0 516664556#1 227074794#0 227074794#1" />
    </vehicle>
    <vehicle depart="10.85" departLane="best" id="veh25" type="veh_passenger">
        <route edges="222246542#0 222246542#1 5677430#1 221696386#1 221696386#2 221696386#3 221696386#4 221696386#5 221696386#6 221696386#7 221696386#8 221696386#9 497257926#0 497257926#1 497257926#2 497257926#3 497257926#4 107391104#0 107391104#1 107391104#3 107391104#4 107391104#5 107391104#7 107391104#8 107391104#9 107391104#11 107391104#12 107391104#13" />
    </vehicle>
    <vehicle depart="11.72" departLane="best" id="veh27" type="veh_passenger">
        <route edges="46835349#1 5678784#12 5678784#13 5678784#14 5678784#15 5678784#16 5678784#17 5678784#18 5678784#19 23334074#2 420567582 420567577 420567578 420567573 420567579 37396284 455014438 420572575 221604539 222248833 -222246978 -386201385 -460576121 -630677037 -630677041 -460576120 -221696387 -420572573 -420572572 -497561531#0 -495315410 -455201237#1 -455201237#0 -675320846 -46137554#1 -46137554#0 23168561 222258276 557041245 440633414 46819926#0" />
    </vehicle>
    <vehicle depart="12.59" departLane="best" id="veh29" type="veh_passenger">
        <route edges="-471943034#4 -471943034#3 -471943034#2 -471943034#1 -471943034#0 -471943031#4 -471943031#3 -471943031#2 276067484 -221753936#1 -221753936#0 -221753949#1 -221753949#0 227064529#0 227064529#1 -227074776#4 -227074776#3 -227074776#2 -227074776#1 -227074776#0 -587355778#3 -587355778#2 -587355778#1 -587355778#0 -68325083#2 -68325083#1 -68325083#0 -227074775#2 -227074775#1 -227074775#0 -5705730 5679460#0 5679460#1 46817493#0 46817493#1 46817493#2 46817493#3 46817493#4 46817493#5 46817493#6 46817493#7 46817493#8 46817493#9 46817493#10 46817493#11 46817493#12 46817493#13 46817493#14 46817493#15 46817493#16 46818464 68523753 46818457-AddedOnRampEdge 46818457 420571185 221605484#1 68325081 420571181 420572573 221696387 460576120 630677041 630677037 460576121 386201385 222246978 -222248833 -420572574 516664556#0 516664556#1 440633375 421121608 -420567578 -420567577 -420567582 -23334074#2 -23334074#1 -23334074#0 -639805149 615942229 421120403 420569583 639805149 23334074#0 23334074#1" />
    </vehicle>
    <vehicle depart="13.46" departLane="best" id="veh31" type="veh_passenger">
        <route edges="442074815 420875688 420875687 -421149633 -421149635 -227064552 -654744274#7 -654744274#6 -654744274#5 -654744274#4 -654744274#3 -654744274#2 497253780#4 497253780#5 497253780#6 497253780#7 497253780#8 682402389 682402388 497253779 682402640 206610786#0 206610786#1 206610786#4 206610786#5 206610786#6 206610786#7 206610786#10 206610786#13 206610786#14 206610786#15 206610786#16 206610786#17 206610786#18 206610786#19 497257600 497257603#0 497257603#1 497257603#2 497257603#3 497257603#4 497257603#5 497257603#8 497257603#9 497257603#10 497257603#11 497257603#12" />
    </vehicle>
    <vehicle depart="13.89" departLane="best" id="veh32" type="veh_passenger">
        <route edges="5678649 421116787#3 421116785 227064531#1 227064531#2 222246284 222246286#1 542169856#3 542169856#4 542169856#5 542169856#6 542169856#7 542169856#8 542169856#9 542169856#10 542169856#11 542169856#12 542169856#13 542169856#14 542169856#15 5677397#6 5677397#7 5677397#8 5677397#9" />
    </vehicle>
    <vehicle depart="14.33" departLane="best" id="veh33" type="veh_passenger">
        <route edges="-5681884 221585914#27 221585914#28 5674974#0 221585916#1 5678177 276145117#0 276145117#1 471943034#0 471943034#1 471943034#2 471943034#3 471943034#4 68523760#0 68523760#1 68523760#2 5676692 227074763 349369490 440633426 227074781#0 227074781#1 227074781#2 227074781#3 227074781#4 227074781#5 227074781#6 227074781#7 227074781#8 227074781#9 227074781#10 227074781#11 227074781#12 227074781#13 227074781#14 227074781#15 227074781#16 227074781#17 227074781#18 227074781#19 5680361#0 5680361#1 497256597 497256596 46865764#0 46865764#2 46865764#3 46865764#4 46865764#5 46865764#6 46865764#7 483704094#24 483704094#25 -221759317#1" />
    </vehicle>
    <vehicle depart="14.76" departLane="best" id="veh34" type="veh_passenger">
        <route edges="221585914#7 221585914#8 221585914#9 221585914#10 221585914#11 221585914#12 221585914#13 221585914#14 221585914#15 221585914#16 221585914#17 221585914#18 221585914#19 221585914#20 221585914#21 221585914#22 221585914#23" />
    </vehicle>
    <vehicle depart="15.19" departLane="best" id="veh35" type="veh_passenger">
        <route edges="-5679471 39956193#2 -321542908 68523760#0 68523760#1 68523760#2 227074765#0 227074765#1 227074765#2 227074765#3 -221725601#3 -221725601#2 -221725601#1 -221725601#0 432554453#0 432554453#1 432554453#2 432554453#3 432554453#4 5705382#0 5705382#1" />
    </vehicle>
    <vehicle depart="16.06" departLane="best" id="veh37" type="veh_passenger">
        <route edges="46838317#1 496995105#0 496995105#1 308338861#0 5680807#1 308338860 40785412 40785410#0 40785410#1 227074809 420346441 420346448#1 420346448#2 420346448#3 420346448#4 420346446 420346439 420346447#1 420346447#2 420346444#1 587355787#0 587355787#1 587355787#2 587355787#3 524340771#0 524340771#1 524340771#2 524340771#3 524340771#4 524340771#6 524340771#7 587355786 222254952#0 222254952#1 222254955 420880633 221759331#1 421151334#1 420880634 420880630 420883015 496984337 420883012 420883010 420875688 420875687 204843025#0 204843025#1 542169859 420875693#1 420875693#2 420875712 315569176#1 420875713#1 227064556#0 227064556#1 227064556#2 227064556#3 227064556#5 227064553 420584215 221759323#1 221759323#2 335394629 420583309#0 420583309#1 420583304#1 420583302#1 420318565 -658936635#1 -221570521#7 274894225" />
    </vehicle>
    <vehicle depart="16.93" departLane="best" id="veh39" type="veh_passenger">
        <route edges="110155729 46818451#1-AddedOnRampEdge 46818451#1 46121872 496990716 46121873#0 46121873#1 46121873#2 5675963#0 5675963#1 5675963#2 5675963#3 5675963#4 5675963#5 5675963#6 5675963#7 5675963#8 5675963#9 460584836#0 460584836#1 204842637#0 204842637#1 204842637#3" />
    </vehicle>
    <vehicle depart="17.36" departLane="best" id="veh40" type="veh_passenger">
        <route edges="450610492#18 450610492#19 450610492#20 450610492#21 450610492#22 450610492#23 315569175#3 315569175#4 315569175#5 315569175#6 420315111#0 420315111#1 421084097 420304910#0 420304910#1 420304910#2 420304890#0 420304890#1 46865764#0 46865764#2 46865764#3 46865764#4 46865764#5 46865764#6 46865764#7 46865764#8 46865764#9 46865764#10 5680120#6 221585908#5" />
    </vehicle>
    <vehicle depart="17.80" departLane="best" id="veh41" type="veh_passenger">
        <route edges="460584837#12 183103228 221607368 46818904#0 46818904#1 40711968#1 206610786#5 206610786#6 206610786#7 206610786#10 206610786#13 206610786#14 206610786#15 206610786#16 206610786#17 206610786#18 5676994#2 5676994#3 5676994#4 5676994#5 5676994#6 5676994#7 5676994#8 5676994#9 5676994#10 5676994#11 5676994#12 5676994#13 5676994#14 5676994#15 5676994#16 5676994#17 5676994#18 221696381#0 221696381#1 221696381#2 497256110#0 497256110#1 497256109 221696378#0 221696378#1 315569175#1 315569175#2 315569175#3 315569175#4 315569175#5 315569175#6 420315111#0 420315111#1 421084097 420304910#0 420304910#1 420304910#2 420304890#0 420304890#1 420304895 420304902#1 420304892 420304912#0 420304912#1 497400544 351479503#0 351479503#1 5680803#0 5680803#1" />
    </vehicle>
    <vehicle depart="18.23" departLane="best" id="veh42" type="veh_passenger">
        <route edges="227074781#14 227074781#15 227074781#16 227074781#17 227074781#18 227074781#19 -221585918#7 -221585918#6 -221585918#5 -221585918#4 -221585918#2 -221585918#1 -221585918#0 221585913 -221753948#2 -221753948#1 -221753948#0 -221753933 -221753950 221753947 -420315112 -221688252 497256111 497256112 221688255#0 221688255#1 350687715#0 350687715#1 587355756 -221696380#0 -587067526#2 -587067526#1 -587067526#0 -23334091#3 -23334091#2 -23334091#1 -23334091#0 -46818468#8 -46818468#7 -46818468#6 -46818468#5 107391104#14 107391104#15 107391104#16 107391104#17 107391104#18 107391104#19 107391104#20 107391104#21 107391104#22 107391104#23 107391104#24 107391104#25 107391104#26 107391104#27 493933673#0 493933673#1 420512627 110155730#0 110155730#2 421754837 511768217 456391963#0 456391963#1 456391963#2 110155732 420571190#1 496990716 5674316 122625672#0 122625672#1" />
    </vehicle>
    <vehicle depart="19.10" departLane="best" id="veh44" type="veh_passenger">
        <route edges="-39612790#0 38654451 -5680913#0 -227074776#2 -227074776#1 -227074776#0 -587355778#3 -587355778#2 -587355778#1 -587355778#0 -68325083#2 -68325083#1 -68325083#0 -227074775#2" />
    </vehicle>
    <vehicle depart="19.53" departLane="best" id="veh45" type="veh_passenger">
        <route edges="-420880051#1 -420880049#0 -46121853#2 -46121853#1 -46121853#0 500534706 110155730#0 110155730#2 421754837 511768217 456391963#0 456391963#1 456391963#2 420571176#1 68325081 420571181 420571192 420571183 78288187#0 78288187#1 421120405 227074797#0 227074797#1 464255706#0 464255706#1 464255706#2 420571187 420571184 -227064517 5680049#0 5680049#1 227064520#0 46835336#22 46835336#23 5680085#1 46835370#2 46835370#3" />
    </vehicle>
    <vehicle depart="21.70" departLane="best" id="veh50" type="veh_passenger">
        <route edges="-185196951 354928473#0 300084882 587355787#3 524340771#0 524340771#1 524340771#2 524340771#3 524340771#4 524340771#6 524340771#7 587355786 222254952#0 222254952#1 40416344#0 40416344#1 5680646 46137501#1 455014440#0 455014440#1 221723367 420880635 288862240#0 288862240#1 288862240#2 288862240#3 288862240#4 288862240#5 288862240#6 288862240#7 288862240#8 420875699 420875707#0 420875707#1 420875709#0 420875709#1 227074779#0 227074779#1 495491356#1 495491356#2 221696386#8 221696386#9 221696386#10 221696386#11 221696386#12 221696386#13 221696386#14 221696386#15 587355778#0 587355778#1 587355778#2 587355778#3 227074776#0 227074776#1 227074776#2 227074776#3 227074776#4 -227064529#1 -227064529#0 221753949#0 221753949#1 -300338876#1 5675082#0" />
    </vehicle>
    <vehicle depart="22.14" departLane="best" id="veh51" type="veh_passenger">
        <route edges="479748558#1 5677397#8 221753942#5 221753942#6 479748557#0 479748557#1 479748557#2 497258437#3 497258437#4 497258437#5 497258437#6 221759320#34 221759320#35 221759329 5680880#0 5680880#1 5680880#2 5680880#3 5680880#4 421116791 535252392 421116792 421116787#0 421116787#1 421116787#2 421116787#3 421116785 420319836#0 420319836#1 420319836#2 420319836#3 680852624 221759333#0 221759333#1 497254142 542169858 420875685 420875672 420875656#0 420875656#1 420875678 420875696 542169861#0 542169861#1 420883011 222251427 496984334 46772622#0 46772622#1 46772622#2 625647904#0 625647904#2 451915593#1" />
    </vehicle>
    <vehicle depart="23.01" departLane="best" id="veh53" type="veh_passenger">
        <route edges="-421118181#1 -421118181#0 497382070 -451915594#1 -451915594#0 222258277 -451915592 -451915590 -496982424 -451915588 -222251431 -420880043 46865766 226998579 46865767#0 308331246 46865768#0 46865768#1 46865768#2 641915866#3 641915866#4 641915866#5 641915866#6 641915866#7 641915866#8 641915866#9 641915866#10 227064535#0 5681030#8 347014806#2" />
    </vehicle>
    <vehicle depart="23.44" departLane="best" id="veh54" type="veh_passenger">
        <route edges="308338866 221602119 40416340#0 40416340#1 46863844#1 46863844#2 46863844#3 46863844#4 5680420#0 5680420#1 360621303 440498211 123001156#0 573632388" />
    </vehicle>
    <vehicle depart="23.88" departLane="best" id="veh55" type="veh_passenger">
        <route edges="5679892#7 5676234#4 5676234#5 5676234#6 5676234#7 5676234#8 5676234#9 489437291 489437292#0 489437292#1 489437292#2 489437292#3 489437292#4 489437292#5 489437292#6 489437292#7 489437292#8 489437292#9 489437292#10 489437292#11 489437292#12 221585918#6 221585918#7 5680361#0 5680361#1 497256597 497256596 46865764#0 46865764#2 46865764#3 46865764#4 46865764#5 46865764#6 46865764#7 46865764#8 46865764#9 46865764#10 5680120#6 221585908#5" />
    </vehicle>
    <vehicle depart="24.74" departLane="best" id="veh57" type="veh_passenger">
        <route edges="5680853#0 5678784#2 5678784#3 5678784#4 5678784#5 5678784#6 5678784#7 5678784#8 227074799#1 227074799#2 227074799#3 227074799#4 450814751 40416345 587355787#2 587355787#3 524340771#0 524340771#1 524340771#2 524340771#3 524340771#4 524340771#6 524340771#7 587355786 222254952#0 222254952#1 222254955 420880633 221759331#1 421151334#1 420880634 420880630 420883015 496984337 420883012 420883010 420875688 420875687 204843025#0 204843025#1 542169859 420875693#1 420875693#2 221759326 496980629#0 496980629#1 420319835#0 420319835#1 315569175#0 542169856#1 542169856#2 542169856#3 542169856#4 542169856#5 542169856#6 483704094#11 483704094#12 475559459#6 475559459#7 479748559#0 5680120#1 5680120#2" />
    </vehicle>
    <vehicle depart="26.05" departLane="best" id="veh60" type="veh_passenger">
        <route edges="5676656#0 5676656#2 5676656#4 5676656#5 5676656#6 -221795719#0 46818902#1 -227074775#1 -227074775#0 -5705730 5679460#0 5679460#1 46817493#0 46817493#1 46817493#2 46818468#1 46818468#2 -497253780#6 -497253780#5 -497253780#4 654744274#2 654744274#3 654744274#4 654744274#5 107391104#17 107391104#18 107391104#19 107391104#20 107391104#21 107391104#22 107391104#23 107391104#24 107391104#25 107391104#26 5675915#0 5675915#1 5675915#4 5675915#5 455014440#1" />
    </vehicle>
    <vehicle depart="26.91" departLane="best" id="veh62" type="veh_passenger">
        <route edges="-108166470 -421149636#1 -421149636#0 420875672 420875656#0 420875656#1 420875678 5675664#0 5675664#1 5675664#2 222246538#2 222246538#3" />
    </vehicle>
    <vehicle depart="27.35" departLane="best" id="veh63" type="veh_passenger">
        <route edges="-221585908#0 -221585909#1 23334061#3 -46865764#4 -46865764#3 -46865764#2 -46865764#0 -497256596 -497256597 46774534#6 46774534#7 46774534#8 420304899 420319832#0 420319832#1 420319832#2 420319832#3 420319832#4 420319832#5 420319832#6 420319832#7 420319832#8 420319832#9 420319832#10 420319832#11 420319832#12 420319832#13 420319834#0 420319834#1 420319834#2 420319831#1 421116787#0 421116787#1 421116787#2 421116787#3 421116785 420319836#0 420319836#1 420319836#2 420319836#3 680852624 221759333#0 221759333#1 497254142 542169858 420875685 420875672 420875656#0 420875656#1 420875678 420875696 542169861#0 542169861#1 420883011 222251427 420883013 -420880630 -420880632 -421151334#1 -421151334#0 -420880633 -222254955 -420880629 -420567581 -420567574 -420567572 -420567580 -420567576 -221603657 -420567575 -420567579 -420567573 25563870#1 440633379 221605488 5029221 46121855 46121864#1 46121864#2 46788762 5678318 46121844#0 46121844#1 46121844#2 46121844#3 -227064517 5680049#0 5680049#1 227064520#0 227064520#1 227064520#2 5681691#1 5681691#2" />
    </vehicle>
    <vehicle depart="28.22" departLane="best" id="veh65" type="veh_passenger">
        <route edges="221585906#1 221585906#2 221585906#3 221585906#4 420304899 420319832#0 420319832#1 420319832#2 420319832#3 420319832#4 420319832#5 420319832#6 420319832#7 420319832#8 420319832#9 420319832#10 420319832#11 420319832#12 420319832#13 420319834#0 420319834#1 420319834#2 420319831#1 421116787#0 421116787#1 421116787#2 421116787#3 421116785 420319836#0 420319836#1 420319836#2 420319836#3 680852624 221759333#0 221759333#1 497254142 542169858 420875685 -421149633 -421149635 -227064552 -654744274#7 -654744274#6 -654744274#5 -654744274#4 -654744274#3 -654744274#2 -654744274#1 -654744274#0 -654744279 46817493#6 46817493#7 46817493#8 46817493#9 46817493#10 46817493#11 46817493#12 46817493#13 46817493#14 46817493#15 46817493#16 -222248832#3 -222248832#2 -222248832#1 -222248832#0 420886412 420886410#1 232270204 239626768 -239626765 -239626767#1" />
    </vehicle>
    <vehicle depart="29.08" departLane="best" id="veh67" type="veh_passenger">
        <route edges="-360608776 5679904#1 5679904#2 46774534#8 420304899 420319832#0 420319832#1 420319832#2 420319832#3 420319832#4 420319832#5 420319832#6 420319832#7 420319832#8 420319832#9 420319832#10 420319832#11 420319832#12 420319832#13 420319834#0 420319834#1 420319834#2 420319831#1 421116787#0 421116787#1 421116787#2 421116787#3 421116785 420319836#0 420319836#1 420319836#2 420319836#3 680852624 221759333#0 221759333#1 497254142 542169858 420875685 420875672 420875656#0 420875656#1 420875678 420875696 542169861#0 542169861#1 420883011 222251427 420883013 -420880630 -420880632 -421151334#1 -421151334#0 -420880633 -222254955 -420880629 -420567581 5681199#3 145079213#2 347014804#3 420567572" />
    </vehicle>
    <vehicle depart="29.52" departLane="best" id="veh68" type="veh_passenger">
        <route edges="-23334074#1 -23334074#0 -639805149 615942229 421120403 420569583 639805149 23334074#0 23334074#1 23334074#2 420567582 420567577 420567578 420567573 420567579 37396284 455014438 420572575 221604539 222248833 -222246978 -386201385 -5676917 -460126498#0 -460126495#0 -46788750 587067518#0 587067518#1 421754839 421121612 37394898#0 37394898#1 37394898#2 37394898#3 37394898#4 37394899#0 37394899#1 37394899#2 37394899#3 37394899#4 37394899#5 37394900 497253780#0 497253780#1 497253780#2 497253780#3 497253780#4 497253780#5 497253780#6 497253780#7 497253780#8 682402389 682402388 497253779 682402640 206610786#0 206610786#1 206610786#4 206610786#5 206610786#6 206610786#7 206610786#10 206610786#13 206610786#14 206610786#15 206610786#16 206610786#17 206610786#18 206610786#19 5677037#22 5677037#23 5677037#24 5677037#25" />
    </vehicle>
    <vehicle depart="30.82" departLane="best" id="veh71" type="veh_passenger">
        <route edges="110155730#2 421754837 511768217 421754839 421121612 37394898#0 37394898#1 37394898#2 37394898#3 37394898#4 37394899#0 37394899#1 37394899#2 37394899#3 37394899#4 37394899#5 37394900 497253780#0 497253780#1 497253780#2 497253780#3 497253780#4 497253780#5 497253780#6 46818468#3 46818468#4 46818468#5 46818468#6 46818468#7 46818468#8 23334091#0 23334091#1 23334091#2 23334091#3 587067526#0 587067526#1 587067526#2 221696380#0 221696380#1 -350687715#1 -350687715#0 -221688255#1 -221688255#0 -497256112 -497256111 221688252 420315112 -221753947 221753950 221753933 221753948#0 221753948#1 221753948#2 5676437 5680159#2 5680159#3" />
    </vehicle>
    <vehicle depart="31.69" departLane="best" id="veh73" type="veh_passenger">
        <route edges="421118179 5681903 5676379#0 5676379#1 5677899#2 68523776-AddedOnRampEdge 68523776 97010378#0 452286946#1 -452286949#1 -497382067#1 -497382067#0 -451915594#1 -451915594#0 222258277 -451915592 -451915590 -496982424 -451915588 -222251431 -420880043 -420880040 -420880042#0 -23334090 222279148 -527223926 -221731899 -420880045 46137501#1 -46788753#3 46121853#5 5675915#4" />
    </vehicle>
    <vehicle depart="33.86" departLane="best" id="veh78" type="veh_passenger">
        <route edges="221696386#10 221696386#11 221696386#12 -206610786#14 -206610786#13 -206610786#10 -206610786#7 -206610786#6 -206610786#5 -206610786#4 -206610786#1 -206610786#0 -682402640 -497253779 -682402388 -682402389 -497253780#8 -497253780#7 -497253780#6 -497253780#5 -497253780#4 -497253780#3 -497253780#2 -497253780#1 -497253780#0 -37394900 -37394899#5 -37394899#4 -37394899#3 -37394899#2 -37394899#1 -37394899#0 -37394898#4 -37394898#3 -37394898#2 -37394898#1 -37394898#0 421121616 421121610 41381890#0 41381890#1 41381890#2 46788750" />
    </vehicle>
    <vehicle depart="35.16" departLane="best" id="veh81" type="veh_passenger">
        <route edges="-5681578 5681787#1 5680167#8 46835367#2 46835367#3 46835367#4 -46121844#0 -5678318 46121868 221759319 221731898#0 221731898#1 5678510 -46121867#0 -221604537#1 -221604537#0 46121857 5680955#0" />
    </vehicle>
    <vehicle depart="35.60" departLane="best" id="veh82" type="veh_passenger">
        <route edges="5679437#1 -682402640 -497253779 -682402388 -682402389 -497253780#8 -497253780#7 -497253780#6 -497253780#5 -497253780#4 654744274#2 654744274#3 654744274#4 654744274#5 107391104#17 107391104#18 107391104#19 107391104#20 107391104#21 107391104#22 107391104#23 107391104#24 107391104#25 107391104#26 107391104#27 493933673#0 493933673#1 420512627 221723366 139919720#0 139919720#1 420880046#0 420880046#1 420880045 473475839 527223926 123001160 420883006 221759332 500269691 420882998 420883008#0 420883008#1 308331245#0 308331245#1 420584903#0 420584903#1 420346452 -40785409#2 -40785409#1 -40785409#0" />
    </vehicle>
    <vehicle depart="36.03" departLane="best" id="veh83" type="veh_passenger">