<routes xmlns:xsi="http://www.w3.org/2001/XMLSchema-instance" xsi:noNamespaceSchemaLocation="http://sumo.dlr.de/xsd/routes_file.xsd">
    <vType id="truck_truck" vClass="truck">
    </vType>
    <trip depart="0.96" departLane="best" from="219964428#4" id="truck1" to="112168176" type="truck_truck" />
    <trip depart="1.91" departLane="best" from="5675523" id="truck2" to="495491355#1" type="truck_truck" />
    <trip depart="2.87" departLane="best" from="5680429#0" id="truck3" to="-420584214#1" type="truck_truck" />
    <trip depart="4.78" departLane="best" from="-587067515" id="truck5" to="420886403" type="truck_truck" />
    <trip depart="6.69" departLane="best" from="46863648#2" id="truck7" to="452284609" type="truck_truck" />
    <trip depart="8.60" departLane="best" from="5678101#14" id="truck9" to="-154513050#0" type="truck_truck" />
    <trip depart="10.51" departLane="best" from="221777103" id="truck11" to="-5676937" type="truck_truck" />
    <trip depart="11.46" departLane="best" from="578129950#1" id="truck12" to="222258268" type="truck_truck" />
    <trip depart="13.37" departLane="best" from="5678919#0" id="truck14" to="46818463" type="truck_truck" />
    <trip depart="15.28" departLane="best" from="432552979#1" id="truck16" to="630677037" type="truck_truck" />
    <trip depart="16.24" departLane="best" from="5678387#2" id="truck17" to="46835336#21" type="truck_truck" />
    <trip depart="17.19" departLane="best" from="5679757" id="truck18" to="464137214#3" type="truck_truck" />
    <trip depart="20.06" departLane="best" from="-37195087#2" id="truck21" to="145079213#2" type="truck_truck" />
    <trip depart="21.01" departLane="best" from="-420875713#0" id="truck22" to="221586639#2" type="truck_truck" />
    <trip depart="23.88" departLane="best" from="183916203#0" id="truck25" to="5681940#2" type="truck_truck" />
    <trip depart="31.52" departLane="best" from="221696379" id="truck33" to="221585914#23" type="truck_truck" />
    <trip depart="34.38" departLane="best" from="5680972#0" id="truck36" to="39974314" type="truck_truck" />
    <trip depart="35.34" departLane="best" from="183103118#0" id="truck37" to="204842637#3" type="truck_truck" />
    <trip depart="36.29" departLane="best" from="451915591#1" id="truck38" to="221585908#5" type="truck_truck" />
    <trip depart="37.25" departLane="best" from="23334091#2" id="truck39" to="110155732" type="truck_truck" />
    <trip depart="38.20" departLane="best" from="78288187#0" id="truck40" to="421118179" type="truck_truck" />
    <trip depart="40.11" departLane="best" from="-432552966#2" id="truck42" to="46835362" type="truck_truck" />
    <trip depart="41.07" departLane="best" from="-232270200#0" id="truck43" to="23334091#1" type="truck_truck" />
    <trip depart="42.02" departLane="best" from="68523776-AddedOnRampEdge" id="truck44" to="447792828#3" type="truck_truck" />
    <trip depart="44.89" departLane="best" from="489437292#10" id="truck47" to="451413253#3" type="truck_truck" />
    <trip depart="46.80" departLane="best" from="-432552979#0" id="truck49" to="347014805#0" type="truck_truck" />
    <trip depart="47.75" departLane="best" from="347014805#6" id="truck50" to="573061411" type="truck_truck" />
    <trip depart="48.71" departLane="best" from="5679924" id="truck51" to="221585909#1" type="truck_truck" />
    <trip depart="50.62" departLane="best" from="5680880#3" id="truck53" to="5680024#4" type="truck_truck" />
    <trip depart="51.57" departLane="best" from="221586638#0" id="truck54" to="46863673#2" type="truck_truck" />
    <trip depart="53.48" departLane="best" from="5676800" id="truck56" to="451910413#9" type="truck_truck" />
    <trip depart="54.44" departLane="best" from="5677047" id="truck57" to="450610492#13" type="truck_truck" />
    <trip depart="55.39" departLane="best" from="-108166470" id="truck58" to="222246285#2" type="truck_truck" />
    <trip depart="56.35" departLane="best" from="-221585908#5" id="truck59" to="5681568#2" type="truck_truck" />
    <trip depart="59.21" departLane="best" from="5680024#4" id="truck62" to="5705730" type="truck_truck" />
    <trip depart="63.03" departLane="best" from="183103118#1" id="truck66" to="5680052#0" type="truck_truck" />
    <trip depart="63.99" departLane="best" from="276043641#0" id="truck67" to="-686370900" type="truck_truck" />
    <trip depart="64.94" departLane="best" from="432554456#1" id="truck68" to="5675664#3" type="truck_truck" />
    <trip depart="66.85" departLane="best" from="68523771" id="truck70" to="46865765#11" type="truck_truck" />
    <trip depart="67.81" departLane="best" from="308340267#4" id="truck71" to="432552970#1" type="truck_truck" />
    <trip depart="72.58" departLane="best" from="-654744274#1" id="truck76" to="5680853#1" type="truck_truck" />
    <trip depart="74.49" departLane="best" from="-78288188#0" id="truck78" to="488941121#10" type="truck_truck" />
    <trip depart="75.45" departLane="best" from="-5707635#0" id="truck79" to="-46865764#4" type="truck_truck" />
    <trip depart="76.40" departLane="best" from="5681678#3" id="truck80" to="46137551#1" type="truck_truck" />
    <trip depart="78.31" departLane="best" from="-420572567" id="truck82" to="34452220#2" type="truck_truck" />
    <trip depart="79.27" departLane="best" from="276050433" id="truck83" to="40785410#1" type="truck_truck" />
    <trip depart="80.22" departLane="best" from="5673953" id="truck84" to="493933673#0" type="truck_truck" />
    <trip depart="82.13" departLane="best" from="249968535#0" id="truck86" to="222258278" type="truck_truck" />
    <trip depart="83.09" departLane="best" from="5679757" id="truck87" to="206610786#19" type="truck_truck" />
    <trip depart="85.00" departLane="best" from="276043635" id="truck89" to="221586639#2" type="truck_truck" />
    <trip depart="86.91" departLane="best" from="334262992#2" id="truck91" to="5679854#13" type="truck_truck" />
    <trip depart="88.82" departLane="best" from="97010395#0" id="truck93" to="5678784#25" type="truck_truck" />
    <trip depart="90.73" departLane="best" from="5678929#0" id="truck95" to="-5678262#1" type="truck_truck" />
    <trip depart="91.68" departLane="best" from="239626765" id="truck96" to="-23334074#1" type="truck_truck" />
    <trip depart="92.64" departLane="best" from="227074769#2" id="truck97" to="658936644#1" type="truck_truck" />
    <trip depart="93.59" departLane="best" from="183103118#1" id="truck98" to="5677459" type="truck_truck" />
    <trip depart="96.46" departLane="best" from="451910412#2" id="truck101" to="552015559#0" type="truck_truck" />
    <trip depart="97.41" departLane="best" from="-483140981#1" id="truck102" to="221696386#3" type="truck_truck" />
    <trip depart="99.32" departLane="best" from="440633404#0" id="truck104" to="5676656#5" type="truck_truck" />
    <trip depart="102.19" departLane="best" from="-494221659#8" id="truck107" to="587067527#1" type="truck_truck" />
    <trip depart="103.14" departLane="best" from="-37394898#0" id="truck108" to="-5680913#0" type="truck_truck" />
    <trip depart="105.05" departLane="best" from="-68325083#1" id="truck110" to="-46786522" type="truck_truck" />
    <trip depart="106.01" departLane="best" from="5680361#0" id="truck111" to="204842637#0" type="truck_truck" />
    <trip depart="107.92" departLane="best" from="421084098" id="truck113" to="5681891#0" type="truck_truck" />
    <trip depart="108.87" departLane="best" from="-5680631#7" id="truck114" to="542169858" type="truck_truck" />
    <trip depart="109.83" departLane="best" from="-78288188#4" id="truck115" to="275303244" type="truck_truck" />
    <trip depart="110.78" departLane="best" from="479748558#0" id="truck116" to="221725601#0" type="truck_truck" />
    <trip depart="111.74" departLane="best" from="221696381#1" id="truck117" to="5676766" type="truck_truck" />
    <trip depart="113.65" departLane="best" from="78288188#3" id="truck119" to="68523772" type="truck_truck" />
    <trip depart="114.60" departLane="best" from="-308340267#1" id="truck120" to="107391104#1" type="truck_truck" />
    <trip depart="116.51" departLane="best" from="227064529#1" id="truck122" to="-5677459" type="truck_truck" />
    <trip depart="117.47" departLane="best" from="5678442#25" id="truck123" to="524340776#4" type="truck_truck" />
    <trip depart="121.29" departLane="best" from="46865768#2" id="truck127" to="5682056#1" type="truck_truck" />
    <trip depart="122.24" departLane="best" from="-46772625#6" id="truck128" to="-464255708" type="truck_truck" />
    <trip depart="124.15" departLane="best" from="206610786#6" id="truck130" to="46818468#2" type="truck_truck" />
    <trip depart="125.11" departLane="best" from="530568998#1" id="truck131" to="-654744274#4" type="truck_truck" />
    <trip depart="126.06" departLane="best" from="46835336#22" id="truck132" to="221585911#1" type="truck_truck" />
    <trip depart="127.02" departLane="best" from="420315111#0" id="truck133" to="5680853#0" type="truck_truck" />
    <trip depart="127.97" departLane="best" from="5678784#7" id="truck134" to="-421149636#0" type="truck_truck" />
    <trip depart="129.88" departLane="best" from="-148285572#1" id="truck136" to="5677205#0" type="truck_truck" />
    <trip depart="130.84" departLane="best" from="46835341#0" id="truck137" to="221585908#2" type="truck_truck" />
    <trip depart="131.79" departLane="best" from="5675784#2" id="truck138" to="460569807#3" type="truck_truck" />
    <trip depart="133.70" departLane="best" from="-334341973#0" id="truck140" to="5680396" type="truck_truck" />
    <trip depart="134.66" departLane="best" from="5680703#6" id="truck141" to="452286949#1" type="truck_truck" />
    <trip depart="135.61" departLane="best" from="5678442#3" id="truck142" to="46772625#5" type="truck_truck" />
    <trip depart="136.57" departLane="best" from="-46863691#3" id="truck143" to="-46818904#9" type="truck_truck" />
    <trip depart="137.52" departLane="best" from="221603657" id="truck144" to="5680742#14" type="truck_truck" />
    <trip depart="138.48" departLane="best" from="5677818#0" id="truck145" to="5679854#10" type="truck_truck" />
    <trip depart="142.30" departLane="best" from="25564006#1" id="truck149" to="46835336#5" type="truck_truck" />
    <trip depart="143.25" departLane="best" from="-483140981#0" id="truck150" to="5681577#2" type="truck_truck" />
    <trip depart="147.07" departLane="best" from="221759320#32" id="truck154" to="5681578" type="truck_truck" />
    <trip depart="149.94" departLane="best" from="5677430#9" id="truck157" to="-460569807#0" type="truck_truck" />
    <trip depart="150.89" departLane="best" from="-587355778#1" id="truck158" to="5678277#6" type="truck_truck" />
    <trip depart="151.85" departLane="best" from="5677695#2" id="truck159" to="123001149#2" type="truck_truck" />
    <trip depart="152.80" departLane="best" from="-221585918#4" id="truck160" to="-5707635#2" type="truck_truck" />
    <trip depart="154.71" departLane="best" from="608794060#1" id="truck162" to="221586643#1" type="truck_truck" />
    <trip depart="155.67" departLane="best" from="46835362" id="truck163" to="275389181" type="truck_truck" />
    <trip depart="156.62" departLane="best" from="654744285#2" id="truck164" to="451413253#1" type="truck_truck" />
    <trip depart="157.58" departLane="best" from="5681939#0" id="truck165" to="-464255708" type="truck_truck" />
    <trip depart="159.49" departLane="best" from="587355764#0" id="truck167" to="221585914#11" type="truck_truck" />
    <trip depart="162.35" departLane="best" from="46788737" id="truck170" to="421123037" type="truck_truck" />
    <trip depart="163.31" departLane="best" from="227074786#2" id="truck171" to="463957168" type="truck_truck" />
    <trip depart="164.26" departLane="best" from="123001156#2" id="truck172" to="530568998#4" type="truck_truck" />
    <trip depart="165.22" departLane="best" from="-111781747#3" id="truck173" to="5681383#8" type="truck_truck" />
    <trip depart="166.17" departLane="best" from="432554453#3" id="truck174" to="559907542#0" type="truck_truck" />
    <trip depart="169.04" departLane="best" from="471943031#0" id="truck177" to="222246979" type="truck_truck" />
    <trip depart="171.90" departLane="best" from="221605483#0" id="truck180" to="276050436" type="truck_truck" />
    <trip depart="173.81" departLane="best" from="-46121853#0" id="truck182" to="308338861#0" type="truck_truck" />
    <trip depart="174.77" departLane="best" from="5681940#3" id="truck183" to="495491356#3" type="truck_truck" />
    <trip depart="175.72" departLane="best" from="5680695#0" id="truck184" to="46820145" type="truck_truck" />
    <trip depart="177.63" departLane="best" from="-108166470" id="truck186" to="221604537#1" type="truck_truck" />
    <trip depart="179.54" departLane="best" from="46863844#16" id="truck188" to="40711969" type="truck_truck" />
    <trip depart="180.50" departLane="best" from="324751025" id="truck189" to="107391104#13" type="truck_truck" />
    <trip depart="181.45" departLane="best" from="39612790#0" id="truck190" to="5680756#1" type="truck_truck" />
    <trip depart="182.41" departLane="best" from="5677818#0" id="truck191" to="-5678278" type="truck_truck" />
    <trip depart="185.27" departLane="best" from="5678246#0" id="truck194" to="5676708#6" type="truck_truck" />
    <trip depart="191.00" departLane="best" from="-5679171#6" id="truck200" to="511768217" type="truck_truck" />
    <trip depart="192.91" departLane="best" from="46863844#22" id="truck202" to="-151471702#0" type="truck_truck" />
    <trip depart="193.87" departLane="best" from="5676353#1" id="truck203" to="5677160#1" type="truck_truck" />
    <trip depart="194.82" departLane="best" from="-43242499#0" id="truck204" to="324751028" type="truck_truck" />
    <trip depart="199.60" departLane="best" from="475559459#3" id="truck209" to="672080274" type="truck_truck" />
    <trip depart="200.55" departLane="best" from="464551540#1" id="truck210" to="5710128#0" type="truck_truck" />
    <trip depart="201.51" departLane="best" from="5680419#1" id="truck211" to="46818905#4" type="truck_truck" />
    <trip depart="202.46" departLane="best" from="530569001#4" id="truck212" to="420884510" type="truck_truck" />
    <trip depart="206.28" departLane="best" from="111781747#4" id="truck216" to="46863648#0" type="truck_truck" />
    <trip depart="207.24" departLane="best" from="5676939#0" id="truck217" to="432554453#4" type="truck_truck" />
    <trip depart="209.15" departLane="best" from="-351479503#1" id="truck219" to="221602117#1" type="truck_truck" />
    <trip depart="210.10" departLane="best" from="206610786#19" id="truck220" to="221777109#14" type="truck_truck" />
    <trip depart="211.06" departLane="best" from="43315004#0" id="truck221" to="-494221659#6" type="truck_truck" />
    <trip depart="212.97" departLane="best" from="515885147#2" id="truck223" to="-308340267#0" type="truck_truck" />
    <trip depart="213.92" departLane="best" from="25723095#0" id="truck224" to="451915591#2" type="truck_truck" />
    <trip depart="214.88" departLane="best" from="276024637#0" id="truck225" to="-672059010" type="truck_truck" />
    <trip depart="216.79" departLane="best" from="46121853#2" id="truck227" to="506650490" type="truck_truck" />
    <trip depart="219.65" departLane="best" from="5679240" id="truck230" to="571995830" type="truck_truck" />
    <trip depart="220.61" departLane="best" from="276024637#26" id="truck231" to="5676563" type="truck_truck" />
    <trip depart="221.56" departLane="best" from="447792828#1" id="truck232" to="46818460#1" type="truck_truck" />
    <trip depart="222.52" departLane="best" from="-587067527#1" id="truck233" to="110161764#0" type="truck_truck" />
    <trip depart="223.47" departLane="best" from="300338876#0" id="truck234" to="-221731898#0" type="truck_truck" />
    <trip depart="224.43" departLane="best" from="221759328#2" id="truck235" to="495491359#1" type="truck_truck" />
    <trip depart="227.29" departLane="best" from="46818471#0" id="truck238" to="-221696380#0" type="truck_truck" />
    <trip depart="229.20" departLane="best" from="-221602121" id="truck240" to="46863844#10" type="truck_truck" />
    <trip depart="230.16" departLane="best" from="-46786509" id="truck241" to="40416338#1" type="truck_truck" />
    <trip depart="231.11" departLane="best" from="-227064556#2" id="truck242" to="23334061#4" type="truck_truck" />
    <trip depart="232.07" departLane="best" from="-5681884" id="truck243" to="222246540#2" type="truck_truck" />
    <trip depart="233.02" departLane="best" from="5676734#0" id="truck244" to="23334061#4" type="truck_truck" />
    <trip depart="233.98" departLane="best" from="5676417#1" id="truck245" to="5678756#8" type="truck_truck" />
    <trip depart="234.93" departLane="best" from="123001149#4" id="truck246" to="-420567578" type="truck_truck" />
    <trip depart="235.89" departLane="best" from="-221585908#5" id="truck247" to="451910413#9" type="truck_truck" />
    <trip depart="236.84" departLane="best" from="97010425#2" id="truck248" to="227064534#5" type="truck_truck" />
    <trip depart="237.80" departLane="best" from="46863648#3" id="truck249" to="5677438#20" type="truck_truck" />
    <trip depart="239.71" departLane="best" from="5705382#0" id="truck251" to="-601732567#1" type="truck_truck" />
    <trip depart="240.66" departLane="best" from="-221585916#1" id="truck252" to="-5675443" type="truck_truck" />
    <trip depart="241.62" departLane="best" from="-46121848#5" id="truck253" to="488941121#3" type="truck_truck" />
    <trip depart="245.44" departLane="best" from="5676234#7" id="truck257" to="-464137214#6" type="truck_truck" />
    <trip depart="246.39" departLane="best" from="5678246#3" id="truck258" to="587355778#0" type="truck_truck" />
    <trip depart="247.35" departLane="best" from="-43242499#5" id="truck259" to="-221688252" type="truck_truck" />
    <trip depart="248.30" departLane="best" from="221688255#0" id="truck260" to="495491356#3" type="truck_truck" />
    <trip depart="249.26" departLane="best" from="587067518#1" id="truck261" to="275303277" type="truck_truck" />
    <trip depart="250.21" departLane="best" from="525679230#3" id="truck262" to="-409285510#0" type="truck_truck" />
    <trip depart="251.17" departLane="best" from="497193472#0" id="truck263" to="46835357#2-AddedOnRampEdge" type="truck_truck" />
    <trip depart="252.12" departLane="best" from="-420880043" id="truck264" to="5677211" type="truck_truck" />
    <trip depart="254.03" departLane="best" from="-451915592" id="truck266" to="658936642#0" type="truck_truck" />
    <trip depart="254.99" departLane="best" from="5677338" id="truck267" to="227064523#3" type="truck_truck" />
    <trip depart="255.94" departLane="best" from="276145117#1" id="truck268" to="227074808" type="truck_truck" />
    <trip depart="256.90" departLane="best" from="420571183" id="truck269" to="226998581#1" type="truck_truck" />
    <trip depart="258.81" departLane="best" from="-421149636#0" id="truck271" to="587067527#1" type="truck_truck" />
    <trip depart="259.76" departLane="best" from="46835336#6" id="truck272" to="5678641" type="truck_truck" />
    <trip depart="262.63" departLane="best" from="206610786#0" id="truck275" to="5678215#4" type="truck_truck" />
    <trip depart="264.54" departLane="best" from="300338876#0" id="truck277" to="5675784#1" type="truck_truck" />
    <trip depart="265.49" departLane="best" from="183916221#5" id="truck278" to="5679708#15" type="truck_truck" />
    <trip depart="266.45" departLane="best" from="5678442#1" id="truck279" to="-420584211" type="truck_truck" />
    <trip depart="267.40" departLane="best" from="5680117" id="truck280" to="183916221#1" type="truck_truck" />
    <trip depart="268.36" departLane="best" from="37434658#2" id="truck281" to="46818904#18" type="truck_truck" />
    <trip depart="269.31" departLane="best" from="227074769#2" id="truck282" to="-221725602#1" type="truck_truck" />
    <trip depart="271.22" departLane="best" from="-5682143" id="truck284" to="5677949#8" type="truck_truck" />
    <trip depart="276.95" departLane="best" from="497193472#0" id="truck290" to="46863844#7" type="truck_truck" />
    <trip depart="277.91" departLane="best" from="420318579" id="truck291" to="5677945#1" type="truck_truck" />
    <trip depart="278.86" departLane="best" from="497253780#2" id="truck292" to="221759317#1" type="truck_truck" />
    <trip depart="283.64" departLane="best" from="122660424#1" id="truck297" to="-46788750" type="truck_truck" />
    <trip depart="284.59" departLane="best" from="-5679109#1" id="truck298" to="-46786509" type="truck_truck" />
    <trip depart="287.46" departLane="best" from="641437652#2" id="truck301" to="440633382#1" type="truck_truck" />
    <trip depart="289.37" departLane="best" from="-5679171#5" id="truck303" to="123001149#2" type="truck_truck" />
    <trip depart="290.32" departLane="best" from="432552966#2" id="truck304" to="221585918#5" type="truck_truck" />
    <trip depart="296.05" departLane="best" from="-5678262#10" id="truck310" to="-227074781#18" type="truck_truck" />
    <trip depart="297.96" departLane="best" from="-308340267#6" id="truck312" to="46835367#4" type="truck_truck" />
    <trip depart="298.92" departLane="best" from="-227074776#2" id="truck313" to="-5674502#0" type="truck_truck" />
    <trip depart="299.87" departLane="best" from="451915595" id="truck314" to="221753936#7" type="truck_truck" />
    <trip depart="300.83" departLane="best" from="68523765#1" id="truck315" to="-46772625#8" type="truck_truck" />
    <trip depart="301.78" departLane="best" from="5677438#24" id="truck316" to="122660423#1" type="truck_truck" />
    <trip depart="304.65" departLane="best" from="680853691" id="truck319" to="221753948#2" type="truck_truck" />
    <trip depart="306.56" departLane="best" from="5675664#4" id="truck321" to="5707293#3" type="truck_truck" />
    <trip depart="307.51" departLane="best" from="-5680972#0" id="truck322" to="-68523775#0" type="truck_truck" />
    <trip depart="310.38" departLane="best" from="-111781747#8" id="truck325" to="37575728#1" type="truck_truck" />
    <trip depart="311.33" departLane="best" from="464137215" id="truck326" to="221694583#0" type="truck_truck" />
    <trip depart="312.29" departLane="best" from="-654744285#6" id="truck327" to="530568988#0" type="truck_truck" />
    <trip depart="314.20" departLane="best" from="495491357#0" id="truck329" to="5681383#10" type="truck_truck" />
    <trip depart="319.93" departLane="best" from="-524340771#0" id="truck335" to="221759318#5" type="truck_truck" />
    <trip depart="322.79" departLane="best" from="496980629#0" id="truck338" to="515885162#7" type="truck_truck" />
    <trip depart="326.61" departLane="best" from="221725601#0" id="truck342" to="219964428#12" type="truck_truck" />
    <trip depart="327.57" departLane="best" from="-420318561" id="truck343" to="587079728#1" type="truck_truck" />
    <trip depart="329.48" departLane="best" from="5706243" id="truck345" to="97010425#0" type="truck_truck" />
    <trip depart="330.43" departLane="best" from="479748559#1" id="truck346" to="221585914#8" type="truck_truck" />
    <trip depart="331.39" departLane="best" from="-221777100#8" id="truck347" to="5676994#10" type="truck_truck" />
    <trip depart="333.30" departLane="best" from="5680992#11" id="truck349" to="-5680476#4" type="truck_truck" />
    <trip depart="335.21" departLane="best" from="420319832#11" id="truck351" to="-421118181#0" type="truck_truck" />
    <trip depart="336.16" departLane="best" from="222246538#0" id="truck352" to="222248832#2" type="truck_truck" />
    <trip depart="337.12" departLane="best" from="479748557#15" id="truck353" to="5679762#8" type="truck_truck" />
    <trip depart="338.07" departLane="best" from="221759318#3" id="truck354" to="500267151#0" type="truck_truck" />
    <trip depart="339.03" departLane="best" from="221585914#1" id="truck355" to="569164780" type="truck_truck" />
    <trip depart="339.98" departLane="best" from="5678147#9" id="truck356" to="459397202#2" type="truck_truck" />
    <trip depart="341.89" departLane="best" from="221725602#3" id="truck358" to="620132897" type="truck_truck" />
    <trip depart="342.85" departLane="best" from="250372840#5" id="truck359" to="43242499#10" type="truck_truck" />
    <trip depart="344.76" departLane="best" from="440633404#2" id="truck361" to="278135785#0" type="truck_truck" />
    <trip depart="349.53" departLane="best" from="308340267#4" id="truck366" to="515885152#5" type="truck_truck" />
    <trip depart="350.49" departLane="best" from="-451915594#1" id="truck367" to="630677037" type="truck_truck" />
    <trip depart="354.31" departLane="best" from="37195087#2" id="truck371" to="-46772625#3" type="truck_truck" />
    <trip depart="355.26" departLane="best" from="5678442#17" id="truck372" to="420875707#0" type="truck_truck" />
    <trip depart="356.22" departLane="best" from="527223926" id="truck373" to="421118177#0" type="truck_truck" />
    <trip depart="357.17" departLane="best" from="219964428#12" id="truck374" to="5678784#19" type="truck_truck" />
    <trip depart="358.13" departLane="best" from="654744274#6" id="truck375" to="183916221#0" type="truck_truck" />
    <trip depart="359.08" departLane="best" from="450610492#9" id="truck376" to="239626767#1" type="truck_truck" />
    <trip depart="363.86" departLane="best" from="420572567" id="truck381" to="5678387#2" type="truck_truck" />
    <trip depart="364.81" departLane="best" from="221583273#0" id="truck382" to="221723367" type="truck_truck" />
    <trip depart="365.77" departLane="best" from="46121873#2" id="truck383" to="97010373#0" type="truck_truck" />
    <trip depart="368.63" departLane="best" from="451380982#2" id="truck386" to="451915593#0" type="truck_truck" />
    <trip depart="371.50" departLane="best" from="460581660#0" id="truck389" to="148285572#1" type="truck_truck" />
    <trip depart="372.45" departLane="best" from="5677037#29" id="truck390" to="-226998579" type="truck_truck" />
    <trip depart="374.36" departLane="best" from="5678115#0" id="truck392" to="249968535#3" type="truck_truck" />
    <trip depart="375.32" departLane="best" from="471943031#0" id="truck393" to="5678387#3" type="truck_truck" />
    <trip depart="376.27" departLane="best" from="654744285#0" id="truck394" to="420584215" type="truck_truck" />
    <trip depart="377.23" departLane="best" from="-221759328#1" id="truck395" to="420882998" type="truck_truck" />
    <trip depart="381.05" departLane="best" from="542169856#12" id="truck399" to="276083330#0" type="truck_truck" />
    <trip depart="382.00" departLane="best" from="37977794#1" id="truck400" to="618977201#0" type="truck_truck" />
    <trip depart="382.96" departLane="best" from="221777100#13" id="truck401" to="497382067#1" type="truck_truck" />
    <trip depart="383.91" departLane="best" from="46863648#2" id="truck402" to="5679708#15" type="truck_truck" />
    <trip depart="385.82" departLane="best" from="227074776#1" id="truck404" to="221777100#15" type="truck_truck" />
    <trip depart="387.73" departLane="best" from="5679904#0" id="truck406" to="-221777100#3" type="truck_truck" />
    <trip depart="388.69" departLane="best" from="-239626769#0" id="truck407" to="46835370#3" type="truck_truck" />
    <trip depart="389.64" departLane="best" from="5681148" id="truck408" to="78288186" type="truck_truck" />
    <trip depart="391.55" departLane="best" from="-420583307#1" id="truck410" to="46838322" type="truck_truck" />
    <trip depart="393.46" departLane="best" from="-222258273#4" id="truck412" to="5677949#25" type="truck_truck" />
    <trip depart="394.42" departLane="best" from="221585916#10" id="truck413" to="23168567" type="truck_truck" />
    <trip depart="395.37" departLane="best" from="-46818905#3" id="truck414" to="450610492#18" type="truck_truck" />
    <trip depart="397.28" departLane="best" from="-5674982" id="truck416" to="-420346445" type="truck_truck" />
    <trip depart="398.24" departLane="best" from="5679892#0" id="truck417" to="46835336#27" type="truck_truck" />
    <trip depart="402.06" departLane="best" from="-185196951" id="truck421" to="5678147#11" type="truck_truck" />
    <trip depart="403.97" departLane="best" from="-496982424" id="truck423" to="354926644#1" type="truck_truck" />
    <trip depart="405.88" departLane="best" from="46835349#3" id="truck425" to="315569175#6" type="truck_truck" />
    <trip depart="406.83" departLane="best" from="122625696-AddedOffRampEdge" id="truck426" to="5679240" type="truck_truck" />
    <trip depart="407.79" departLane="best" from="-5680035#1" id="truck427" to="239629078" type="truck_truck" />
    <trip depart="409.70" departLane="best" from="68523754#1" id="truck429" to="221696386#1" type="truck_truck" />
    <trip depart="410.65" departLane="best" from="641915866#3" id="truck430" to="479748557#2" type="truck_truck" />
    <trip depart="411.61" departLane="best" from="219964428#18" id="truck431" to="46121850#1" type="truck_truck" />
    <trip depart="413.52" departLane="best" from="-227064555#0" id="truck433" to="46818470#0" type="truck_truck" />
    <trip depart="416.38" departLane="best" from="46788742#2" id="truck436" to="227064535#9" type="truck_truck" />
    <trip depart="417.34" departLane="best" from="483704094#4" id="truck437" to="5674278#2" type="truck_truck" />
    <trip depart="419.25" departLane="best" from="46838322" id="truck439" to="221759320#32" type="truck_truck" />
    <trip depart="424.03" departLane="best" from="432554456#1" id="truck444" to="625647896#3" type="truck_truck" />
    <trip depart="426.89" departLane="best" from="5678277#6" id="truck447" to="420346448#3" type="truck_truck" />
    <trip depart="427.85" departLane="best" from="5677950#2" id="truck448" to="5676531#2" type="truck_truck" />
    <trip depart="429.76" departLane="best" from="587355768" id="truck450" to="-497253780#8" type="truck_truck" />