<routes xmlns:xsi="http://www.w3.org/2001/XMLSchema-instance" xsi:noNamespaceSchemaLocation="http://sumo.dlr.de/xsd/routes_file.xsd">
    <vType id="moto_motorcycle" vClass="motorcycle">
    </vType>
    <trip depart="0.00" departLane="best" from="421755067#0" id="moto0" to="626315789#2" type="moto_motorcycle" />
    <trip depart="0.68" departLane="best" from="451910413#0" id="moto1" to="221585908#5" type="moto_motorcycle" />
    <trip depart="1.36" departLane="best" from="-232270198#0" id="moto2" to="239626764#1" type="moto_motorcycle" />
    <trip depart="2.73" departLane="best" from="5679904#5" id="moto4" to="221585908#5" type="moto_motorcycle" />
    <trip depart="3.41" departLane="best" from="5680024#12" id="moto5" to="5678784#10" type="moto_motorcycle" />
    <trip depart="4.09" departLane="best" from="-37793000#5" id="moto6" to="420346490#2" type="moto_motorcycle" />
    <trip depart="4.78" departLane="best" from="-587067526#0" id="moto7" to="5680880#3" type="moto_motorcycle" />
    <trip depart="6.14" departLane="best" from="37523532#0" id="moto9" to="5677585#0" type="moto_motorcycle" />
    <trip depart="6.82" departLane="best" from="40416344#0" id="moto10" to="107391104#24" type="moto_motorcycle" />
    <trip depart="8.19" departLane="best" from="-227074781#19" id="moto12" to="46786493" type="moto_motorcycle" />
    <trip depart="8.87" departLane="best" from="46179211#3" id="moto13" to="495315400" type="moto_motorcycle" />
    <trip depart="10.23" departLane="best" from="5678215#1" id="moto15" to="221725601#0" type="moto_motorcycle" />
    <trip depart="10.91" departLane="best" from="5679887#2" id="moto16" to="5679826" type="moto_motorcycle" />
    <trip depart="12.28" departLane="best" from="545291572#0" id="moto18" to="221759330#1" type="moto_motorcycle" />
    <trip depart="12.96" departLane="best" from="222251427" id="moto19" to="-37394900" type="moto_motorcycle" />
    <trip depart="13.64" departLane="best" from="221586638#5" id="moto20" to="276050436" type="moto_motorcycle" />
    <trip depart="15.69" departLane="best" from="-420882994" id="moto23" to="324751028" type="moto_motorcycle" />
    <trip depart="16.37" departLane="best" from="-78288188#0" id="moto24" to="46863648#3" type="moto_motorcycle" />
    <trip depart="17.74" departLane="best" from="37183340#3" id="moto26" to="-46865764#10" type="moto_motorcycle" />
    <trip depart="18.42" departLane="best" from="227074790#0" id="moto27" to="46121857" type="moto_motorcycle" />
    <trip depart="19.78" departLane="best" from="-227064555#1" id="moto29" to="23334065#0" type="moto_motorcycle" />
    <trip depart="21.15" departLane="best" from="-497257603#9" id="moto31" to="46818904#15" type="moto_motorcycle" />
    <trip depart="21.83" departLane="best" from="524340776#10" id="moto32" to="-420318559" type="moto_motorcycle" />
    <trip depart="22.51" departLane="best" from="43242499#4" id="moto33" to="420346480#2" type="moto_motorcycle" />
    <trip depart="23.19" departLane="best" from="497258437#0" id="moto34" to="221586638#5" type="moto_motorcycle" />
    <trip depart="23.88" departLane="best" from="5675915#1" id="moto35" to="222246983#1" type="moto_motorcycle" />
    <trip depart="25.24" departLane="best" from="-5680476#3" id="moto37" to="-78288188#4" type="moto_motorcycle" />
    <trip depart="25.92" departLane="best" from="46137556" id="moto38" to="221694583#1" type="moto_motorcycle" />
    <trip depart="26.60" departLane="best" from="5682095#3" id="moto39" to="420880630" type="moto_motorcycle" />
    <trip depart="28.65" departLane="best" from="154513056" id="moto42" to="5678784#27" type="moto_motorcycle" />
    <trip depart="29.33" departLane="best" from="654744279" id="moto43" to="420626018" type="moto_motorcycle" />
    <trip depart="30.01" departLane="best" from="530569001#5" id="moto44" to="276083330#1" type="moto_motorcycle" />
    <trip depart="30.70" departLane="best" from="46863669" id="moto45" to="-5676939#3" type="moto_motorcycle" />
    <trip depart="31.38" departLane="best" from="5681089" id="moto46" to="68523779#1" type="moto_motorcycle" />
    <trip depart="32.06" departLane="best" from="5675963#0" id="moto47" to="347014804#3" type="moto_motorcycle" />
    <trip depart="33.43" departLane="best" from="221759329" id="moto49" to="46786525" type="moto_motorcycle" />
    <trip depart="34.79" departLane="best" from="154513057" id="moto51" to="46121872" type="moto_motorcycle" />
    <trip depart="35.47" departLane="best" from="46835336#13" id="moto52" to="46835346" type="moto_motorcycle" />
    <trip depart="37.52" departLane="best" from="46863851#0" id="moto55" to="46863840#1" type="moto_motorcycle" />
    <trip depart="38.20" departLane="best" from="-460126495#0" id="moto56" to="46121861" type="moto_motorcycle" />
    <trip depart="38.88" departLane="best" from="420875709#1" id="moto57" to="39974314" type="moto_motorcycle" />
    <trip depart="40.93" departLane="best" from="227064522#1" id="moto60" to="-5676917" type="moto_motorcycle" />
    <trip depart="41.61" departLane="best" from="46121844#1" id="moto61" to="46121848#4" type="moto_motorcycle" />
    <trip depart="43.66" departLane="best" from="479748557#13" id="moto64" to="221585917#0" type="moto_motorcycle" />
    <trip depart="46.39" departLane="best" from="221585915" id="moto68" to="221585918#9" type="moto_motorcycle" />
    <trip depart="47.07" departLane="best" from="420346486#1" id="moto69" to="40416346#1" type="moto_motorcycle" />
    <trip depart="48.43" departLane="best" from="221759318#0" id="moto71" to="46818451#1" type="moto_motorcycle" />
    <trip depart="49.11" departLane="best" from="535252377" id="moto72" to="479748557#11" type="moto_motorcycle" />
    <trip depart="49.80" departLane="best" from="5678101#6" id="moto73" to="489437292#0" type="moto_motorcycle" />
    <trip depart="50.48" departLane="best" from="-5677150#1" id="moto74" to="107391104#26" type="moto_motorcycle" />
    <trip depart="51.84" departLane="best" from="608794060#0" id="moto76" to="5678366#6" type="moto_motorcycle" />
    <trip depart="52.53" departLane="best" from="221777109#10" id="moto77" to="-221688754#3" type="moto_motorcycle" />
    <trip depart="53.21" departLane="best" from="-350687715#1" id="moto78" to="221570521#5" type="moto_motorcycle" />
    <trip depart="54.57" departLane="best" from="5680703#7" id="moto80" to="46817511#1" type="moto_motorcycle" />
    <trip depart="55.25" departLane="best" from="-658936644#16" id="moto81" to="-526209963#1" type="moto_motorcycle" />
    <trip depart="56.62" departLane="best" from="227074781#19" id="moto83" to="420304892" type="moto_motorcycle" />
    <trip depart="57.30" departLane="best" from="5674356" id="moto84" to="46835368#2" type="moto_motorcycle" />
    <trip depart="59.35" departLane="best" from="222258266#1" id="moto87" to="239626766" type="moto_motorcycle" />
    <trip depart="61.39" departLane="best" from="432552980#1" id="moto90" to="5680637#6" type="moto_motorcycle" />
    <trip depart="62.08" departLane="best" from="-38341527#0" id="moto91" to="221759321#2" type="moto_motorcycle" />
    <trip depart="63.44" departLane="best" from="46786486" id="moto93" to="5679171#3" type="moto_motorcycle" />
    <trip depart="64.80" departLane="best" from="639118784#1" id="moto95" to="-471943031#3" type="moto_motorcycle" />
    <trip depart="65.49" departLane="best" from="-46772625#3" id="moto96" to="222251427" type="moto_motorcycle" />
    <trip depart="66.17" departLane="best" from="221753947" id="moto97" to="5678753" type="moto_motorcycle" />
    <trip depart="66.85" departLane="best" from="5677585#4" id="moto98" to="5675523" type="moto_motorcycle" />
    <trip depart="67.53" departLane="best" from="460584836#1" id="moto99" to="5674854" type="moto_motorcycle" />
    <trip depart="68.90" departLane="best" from="221696381#0" id="moto101" to="483704094#10" type="moto_motorcycle" />
    <trip depart="69.58" departLane="best" from="221602120" id="moto102" to="227064534#5" type="moto_motorcycle" />
    <trip depart="70.26" departLane="best" from="524340771#4" id="moto103" to="227064523#5" type="moto_motorcycle" />
    <trip depart="70.94" departLane="best" from="-227064558" id="moto104" to="278135786" type="moto_motorcycle" />
    <trip depart="71.63" departLane="best" from="5680880#3" id="moto105" to="-5679875#1" type="moto_motorcycle" />
    <trip depart="72.31" departLane="best" from="5680085#2" id="moto106" to="-5679879" type="moto_motorcycle" />
    <trip depart="72.99" departLane="best" from="5681892" id="moto107" to="5679708#19" type="moto_motorcycle" />
    <trip depart="73.67" departLane="best" from="5676353#1" id="moto108" to="573626193" type="moto_motorcycle" />
    <trip depart="75.04" departLane="best" from="311764602" id="moto110" to="525646871#1" type="moto_motorcycle" />
    <trip depart="76.40" departLane="best" from="227074799#1" id="moto112" to="5678366#3" type="moto_motorcycle" />
    <trip depart="77.08" departLane="best" from="5676800" id="moto113" to="641915866#3" type="moto_motorcycle" />
    <trip depart="77.77" departLane="best" from="68523754#2" id="moto114" to="239626766" type="moto_motorcycle" />
    <trip depart="79.81" departLane="best" from="-227074786#7" id="moto117" to="5707635#5" type="moto_motorcycle" />
    <trip depart="80.49" departLane="best" from="451380982#3" id="moto118" to="-494221659#4" type="moto_motorcycle" />
    <trip depart="81.86" departLane="best" from="227064535#6" id="moto120" to="451413253#2" type="moto_motorcycle" />
    <trip depart="83.90" departLane="best" from="5678246#2" id="moto123" to="587355787#3" type="moto_motorcycle" />
    <trip depart="84.59" departLane="best" from="46835344#2" id="moto124" to="420572567" type="moto_motorcycle" />
    <trip depart="85.27" departLane="best" from="-497561531#0" id="moto125" to="5674349" type="moto_motorcycle" />
    <trip depart="85.95" departLane="best" from="227064513#3" id="moto126" to="46835336#27" type="moto_motorcycle" />
    <trip depart="87.32" departLane="best" from="488941121#4" id="moto128" to="5679490#1" type="moto_motorcycle" />
    <trip depart="88.00" departLane="best" from="-524340771#7" id="moto129" to="420880051#1" type="moto_motorcycle" />
    <trip depart="88.68" departLane="best" from="-420318571" id="moto130" to="450610492#15" type="moto_motorcycle" />
    <trip depart="90.04" departLane="best" from="-288862241#0" id="moto132" to="5681491#2" type="moto_motorcycle" />
    <trip depart="90.73" departLane="best" from="5680549" id="moto133" to="46121853#1" type="moto_motorcycle" />
    <trip depart="92.77" departLane="best" from="46817511#3" id="moto136" to="5678147#6" type="moto_motorcycle" />
    <trip depart="94.14" departLane="best" from="658936639#0" id="moto138" to="495491358#2" type="moto_motorcycle" />
    <trip depart="94.82" departLane="best" from="308340267#7" id="moto139" to="25564006#1" type="moto_motorcycle" />
    <trip depart="95.50" departLane="best" from="5678889#1" id="moto140" to="46865764#5" type="moto_motorcycle" />
    <trip depart="96.18" departLane="best" from="468009828" id="moto141" to="-601732567#0" type="moto_motorcycle" />
    <trip depart="96.87" departLane="best" from="-37793000#0" id="moto142" to="-494221659#4" type="moto_motorcycle" />
    <trip depart="98.23" departLane="best" from="221601322#16" id="moto144" to="37602216#5" type="moto_motorcycle" />
    <trip depart="98.91" departLane="best" from="5678147#2" id="moto145" to="587355761#0" type="moto_motorcycle" />
    <trip depart="99.59" departLane="best" from="420346478#0" id="moto146" to="420584903#0" type="moto_motorcycle" />
    <trip depart="100.28" departLane="best" from="488941121#8" id="moto147" to="288862240#3" type="moto_motorcycle" />
    <trip depart="101.64" departLane="best" from="-497257600" id="moto149" to="-497257603#8" type="moto_motorcycle" />
    <trip depart="102.32" departLane="best" from="221696377#4" id="moto150" to="525679230#1" type="moto_motorcycle" />
    <trip depart="105.05" departLane="best" from="-239626769#2" id="moto154" to="239626767#1" type="moto_motorcycle" />
    <trip depart="105.73" departLane="best" from="221597280#9" id="moto155" to="5680361#1" type="moto_motorcycle" />
    <trip depart="107.10" departLane="best" from="489437292#5" id="moto157" to="5679854#12" type="moto_motorcycle" />
    <trip depart="108.46" departLane="best" from="421755067#1" id="moto159" to="25564005" type="moto_motorcycle" />
    <trip depart="109.14" departLane="best" from="46820403#0" id="moto160" to="5678784#26" type="moto_motorcycle" />
    <trip depart="109.83" departLane="best" from="34287042#4" id="moto161" to="46818904#7" type="moto_motorcycle" />
    <trip depart="110.51" departLane="best" from="221586638#5" id="moto162" to="5676437" type="moto_motorcycle" />
    <trip depart="111.19" departLane="best" from="-46835364" id="moto163" to="5681691#3" type="moto_motorcycle" />
    <trip depart="111.87" departLane="best" from="5677949#10" id="moto164" to="654744285#2" type="moto_motorcycle" />
    <trip depart="112.55" departLane="best" from="420304910#0" id="moto165" to="5677211" type="moto_motorcycle" />
    <trip depart="114.60" departLane="best" from="-5679471" id="moto168" to="5677438#15" type="moto_motorcycle" />
    <trip depart="115.28" departLane="best" from="221586638#10" id="moto169" to="221585914#0" type="moto_motorcycle" />
    <trip depart="115.97" departLane="best" from="227002831#2" id="moto170" to="46838302#1" type="moto_motorcycle" />
    <trip depart="116.65" departLane="best" from="-221688255#1" id="moto171" to="497254142" type="moto_motorcycle" />
    <trip depart="117.33" departLane="best" from="221585907#1" id="moto172" to="276145117#1" type="moto_motorcycle" />
    <trip depart="118.69" departLane="best" from="5677926#1" id="moto174" to="5677949#22" type="moto_motorcycle" />
    <trip depart="119.38" departLane="best" from="40416338#1" id="moto175" to="5680996" type="moto_motorcycle" />
    <trip depart="120.06" departLane="best" from="-5681578" id="moto176" to="5680736" type="moto_motorcycle" />
    <trip depart="120.74" departLane="best" from="5676803#3" id="moto177" to="97010425#0" type="moto_motorcycle" />
    <trip depart="122.11" departLane="best" from="497149598#0" id="moto179" to="5681578" type="moto_motorcycle" />
    <trip depart="123.47" departLane="best" from="227074781#8" id="moto181" to="68523760#0" type="moto_motorcycle" />
    <trip depart="126.20" departLane="best" from="221585907#0" id="moto185" to="221777109#11" type="moto_motorcycle" />
    <trip depart="126.88" departLane="best" from="222258278" id="moto186" to="37394899#1" type="moto_motorcycle" />
    <trip depart="127.56" departLane="best" from="46865768#1" id="moto187" to="-420880040" type="moto_motorcycle" />
    <trip depart="130.97" departLane="best" from="46121850#0" id="moto192" to="5676999" type="moto_motorcycle" />
    <trip depart="131.66" departLane="best" from="5676656#4" id="moto193" to="5679930" type="moto_motorcycle" />
    <trip depart="132.34" departLane="best" from="420346477#0" id="moto194" to="46846378#1" type="moto_motorcycle" />
    <trip depart="133.02" departLane="best" from="-497253779" id="moto195" to="5680703#8" type="moto_motorcycle" />
    <trip depart="133.70" departLane="best" from="5676852#0" id="moto196" to="-154513057" type="moto_motorcycle" />
    <trip depart="134.38" departLane="best" from="227064523#4" id="moto197" to="227064534#5" type="moto_motorcycle" />
    <trip depart="135.07" departLane="best" from="275303281" id="moto198" to="250372840#7" type="moto_motorcycle" />
    <trip depart="135.75" departLane="best" from="421752007" id="moto199" to="5677585#1" type="moto_motorcycle" />
    <trip depart="136.43" departLane="best" from="221694583#0" id="moto200" to="5678784#19" type="moto_motorcycle" />
    <trip depart="137.79" departLane="best" from="497149598#0" id="moto202" to="227064522#2" type="moto_motorcycle" />
    <trip depart="138.48" departLane="best" from="5678262#13" id="moto203" to="221725598#4" type="moto_motorcycle" />
    <trip depart="139.16" departLane="best" from="5674502#3" id="moto204" to="46788746#2" type="moto_motorcycle" />
    <trip depart="139.84" departLane="best" from="421752007" id="moto205" to="-227074776#3" type="moto_motorcycle" />
    <trip depart="140.52" departLane="best" from="68523765#5" id="moto206" to="483704094#1" type="moto_motorcycle" />
    <trip depart="141.89" departLane="best" from="-5675523" id="moto208" to="-222247847#0" type="moto_motorcycle" />
    <trip depart="142.57" departLane="best" from="221597280#6" id="moto209" to="5676262#8" type="moto_motorcycle" />
    <trip depart="143.93" departLane="best" from="46818457-AddedOnRampEdge" id="moto211" to="5680167#2" type="moto_motorcycle" />
    <trip depart="144.62" departLane="best" from="5677818#4" id="moto212" to="46865765#0" type="moto_motorcycle" />
    <trip depart="145.98" departLane="best" from="5678574" id="moto214" to="461075409#0" type="moto_motorcycle" />
    <trip depart="146.66" departLane="best" from="5679854#4" id="moto215" to="-420304938" type="moto_motorcycle" />
    <trip depart="148.03" departLane="best" from="524340776#7" id="moto217" to="-46772625#4" type="moto_motorcycle" />
    <trip depart="148.71" departLane="best" from="420880039" id="moto218" to="524340776#4" type="moto_motorcycle" />
    <trip depart="149.39" departLane="best" from="-46788749#1" id="moto219" to="545291578#1-AddedOffRampEdge" type="moto_motorcycle" />
    <trip depart="150.07" departLane="best" from="25723095#1" id="moto220" to="5681544#3" type="moto_motorcycle" />
    <trip depart="151.44" departLane="best" from="-464137214#9" id="moto222" to="420880042#1" type="moto_motorcycle" />
    <trip depart="152.80" departLane="best" from="497258437#2" id="moto224" to="5679854#4" type="moto_motorcycle" />
    <trip depart="154.17" departLane="best" from="221446578#0" id="moto226" to="219964428#14" type="moto_motorcycle" />
    <trip depart="154.85" departLane="best" from="5677749" id="moto227" to="221605484#1" type="moto_motorcycle" />
    <trip depart="156.21" departLane="best" from="497259892#3" id="moto229" to="46865764#3" type="moto_motorcycle" />
    <trip depart="157.58" departLane="best" from="420571192" id="moto231" to="232270200#4" type="moto_motorcycle" />
    <trip depart="158.26" departLane="best" from="46788758" id="moto232" to="46835348" type="moto_motorcycle" />
    <trip depart="158.94" departLane="best" from="5680851#2" id="moto233" to="5678442#18" type="moto_motorcycle" />
    <trip depart="159.62" departLane="best" from="43242499#2" id="moto234" to="524340776#7" type="moto_motorcycle" />
    <trip depart="160.31" departLane="best" from="5675963#1" id="moto235" to="-5676939#0" type="moto_motorcycle" />
    <trip depart="160.99" departLane="best" from="5677438#3" id="moto236" to="460779250#9" type="moto_motorcycle" />
    <trip depart="161.67" departLane="best" from="460569807#1" id="moto237" to="123001151#2" type="moto_motorcycle" />
    <trip depart="163.03" departLane="best" from="5678442#18" id="moto239" to="-587067529#0" type="moto_motorcycle" />
    <trip depart="163.72" departLane="best" from="-5677270" id="moto240" to="5678101#10" type="moto_motorcycle" />
    <trip depart="164.40" departLane="best" from="-420572566" id="moto241" to="46835342#1" type="moto_motorcycle" />
    <trip depart="165.08" departLane="best" from="221585918#0" id="moto242" to="46786493" type="moto_motorcycle" />
    <trip depart="167.13" departLane="best" from="-5681578" id="moto245" to="420567578" type="moto_motorcycle" />
    <trip depart="167.81" departLane="best" from="-23113651#1" id="moto246" to="23042415" type="moto_motorcycle" />
    <trip depart="169.17" departLane="best" from="5680742#2" id="moto248" to="432552976" type="moto_motorcycle" />
    <trip depart="170.54" departLane="best" from="464255710" id="moto250" to="46121853#2" type="moto_motorcycle" />
    <trip depart="172.58" departLane="best" from="110161764#1" id="moto253" to="221759318#3" type="moto_motorcycle" />
    <trip depart="173.27" departLane="best" from="5674866" id="moto254" to="5679759" type="moto_motorcycle" />
    <trip depart="173.95" departLane="best" from="5677945#1" id="moto255" to="221602120" type="moto_motorcycle" />
    <trip depart="174.63" departLane="best" from="219964428#3" id="moto256" to="5678756#4" type="moto_motorcycle" />
    <trip depart="175.31" departLane="best" from="38341527#2" id="moto257" to="227064556#2" type="moto_motorcycle" />
    <trip depart="175.99" departLane="best" from="5680442#10" id="moto258" to="221585914#6" type="moto_motorcycle" />
    <trip depart="176.68" departLane="best" from="-420882994" id="moto259" to="5681248#0" type="moto_motorcycle" />
    <trip depart="177.36" departLane="best" from="479748557#9" id="moto260" to="483704094#17" type="moto_motorcycle" />
    <trip depart="178.04" departLane="best" from="641437649" id="moto261" to="515885162#5" type="moto_motorcycle" />
    <trip depart="180.09" departLane="best" from="222254955" id="moto264" to="420880042#0" type="moto_motorcycle" />
    <trip depart="180.77" departLane="best" from="-5680631#6" id="moto265" to="524340771#2" type="moto_motorcycle" />
    <trip depart="182.13" departLane="best" from="-227074786#2" id="moto267" to="5678262#7" type="moto_motorcycle" />
    <trip depart="182.82" departLane="best" from="222246978" id="moto268" to="46121844#0" type="moto_motorcycle" />
    <trip depart="183.50" departLane="best" from="46835402#1" id="moto269" to="-5679472" type="moto_motorcycle" />
    <trip depart="184.18" departLane="best" from="-5678101#13" id="moto270" to="-221585918#4" type="moto_motorcycle" />
    <trip depart="184.86" departLane="best" from="542169859" id="moto271" to="483704094#1" type="moto_motorcycle" />
    <trip depart="185.55" departLane="best" from="5681969#1" id="moto272" to="524340771#2" type="moto_motorcycle" />
    <trip depart="186.23" departLane="best" from="420880048" id="moto273" to="46863691#6" type="moto_motorcycle" />
    <trip depart="188.27" departLane="best" from="37394899#1" id="moto276" to="-154513056" type="moto_motorcycle" />
    <trip depart="188.96" departLane="best" from="227074781#15" id="moto277" to="23334061#3" type="moto_motorcycle" />
    <trip depart="189.64" departLane="best" from="46835336#15" id="moto278" to="46835336#27" type="moto_motorcycle" />
    <trip depart="190.32" departLane="best" from="5676852#4" id="moto279" to="206610786#5" type="moto_motorcycle" />
    <trip depart="191.00" departLane="best" from="420875707#1" id="moto280" to="654744285#6" type="moto_motorcycle" />
    <trip depart="191.68" departLane="best" from="221585908#0" id="moto281" to="221585908#5" type="moto_motorcycle" />
    <trip depart="192.37" departLane="best" from="-654744274#4" id="moto282" to="5674507" type="moto_motorcycle" />
    <trip depart="193.05" departLane="best" from="46818470#2" id="moto283" to="-5680476#1" type="moto_motorcycle" />
    <trip depart="193.73" departLane="best" from="-420880051#1" id="moto284" to="46863691#0" type="moto_motorcycle" />
    <trip depart="194.41" departLane="best" from="232270198#1" id="moto285" to="222258273#8" type="moto_motorcycle" />
    <trip depart="195.10" departLane="best" from="-483140980#0" id="moto286" to="78288188#2" type="moto_motorcycle" />
    <trip depart="195.78" departLane="best" from="221696379" id="moto287" to="23113651#2" type="moto_motorcycle" />
    <trip depart="197.14" departLane="best" from="542169856#3" id="moto289" to="658936633#3" type="moto_motorcycle" />
    <trip depart="197.82" departLane="best" from="68523760#1" id="moto290" to="221753936#0" type="moto_motorcycle" />
    <trip depart="198.51" departLane="best" from="308340267#6" id="moto291" to="46817493#2" type="moto_motorcycle" />
    <trip depart="199.19" departLane="best" from="221570521#4" id="moto292" to="274894219" type="moto_motorcycle" />
    <trip depart="199.87" departLane="best" from="23042440#4" id="moto293" to="-420875713#0" type="moto_motorcycle" />
    <trip depart="200.55" departLane="best" from="-46121853#0" id="moto294" to="-496982424" type="moto_motorcycle" />
    <trip depart="201.23" departLane="best" from="46817493#2" id="moto295" to="5676159#2" type="moto_motorcycle" />
    <trip depart="201.92" departLane="best" from="5677037#15" id="moto296" to="222246285#2" type="moto_motorcycle" />
    <trip depart="203.28" departLane="best" from="-46788753#3" id="moto298" to="516664556#0" type="moto_motorcycle" />
    <trip depart="203.96" departLane="best" from="221759333#1" id="moto299" to="227064552" type="moto_motorcycle" />
    <trip depart="204.65" departLane="best" from="641915866#3" id="moto300" to="420883003" type="moto_motorcycle" />
    <trip depart="206.01" departLane="best" from="227064552" id="moto302" to="587067526#2" type="moto_motorcycle" />
    <trip depart="207.37" departLane="best" from="5677818#5" id="moto304" to="5679887#3" type="moto_motorcycle" />
    <trip depart="208.06" departLane="best" from="5680992#12" id="moto305" to="221777100#6" type="moto_motorcycle" />
    <trip depart="208.74" departLane="best" from="-432554456#1" id="moto306" to="221777100#8" type="moto_motorcycle" />
    <trip depart="209.42" departLane="best" from="-46772625#6" id="moto307" to="-587067526#1" type="moto_motorcycle" />
    <trip depart="210.10" departLane="best" from="5678278" id="moto308" to="40416340#0" type="moto_motorcycle" />
    <trip depart="210.78" departLane="best" from="5680742#15" id="moto309" to="5677949#5" type="moto_motorcycle" />
    <trip depart="211.47" departLane="best" from="-46835364" id="moto310" to="5680024#4" type="moto_motorcycle" />
    <trip depart="212.15" departLane="best" from="440633404#0" id="moto311" to="46835342#1" type="moto_motorcycle" />
    <trip depart="213.51" departLane="best" from="-46121848#5" id="moto313" to="46121848#5" type="moto_motorcycle" />
    <trip depart="214.20" departLane="best" from="-432554456#1" id="moto314" to="5679548#0" type="moto_motorcycle" />
    <trip depart="214.88" departLane="best" from="489437292#10" id="moto315" to="5678101#1" type="moto_motorcycle" />
    <trip depart="216.92" departLane="best" from="-222251431" id="moto318" to="43314998#0" type="moto_motorcycle" />
    <trip depart="218.29" departLane="best" from="5678442#25" id="moto320" to="51980526#0" type="moto_motorcycle" />
    <trip depart="218.97" departLane="best" from="5678215#10" id="moto321" to="542169856#2" type="moto_motorcycle" />
    <trip depart="220.33" departLane="best" from="46838311" id="moto323" to="5677945#1" type="moto_motorcycle" />
    <trip depart="221.02" departLane="best" from="5677157#0" id="moto324" to="347014806#0" type="moto_motorcycle" />
    <trip depart="223.06" departLane="best" from="5682164#3" id="moto327" to="347014805#3" type="moto_motorcycle" />
    <trip depart="223.75" departLane="best" from="5679708#16" id="moto328" to="5679904#2" type="moto_motorcycle" />
    <trip depart="224.43" departLane="best" from="-625647904#2" id="moto329" to="524340776#4" type="moto_motorcycle" />
    <trip depart="226.47" departLane="best" from="5678784#23" id="moto332" to="183103091#1" type="moto_motorcycle" />
    <trip depart="227.84" departLane="best" from="658936639#0" id="moto334" to="658936639#0" type="moto_motorcycle" />
    <trip depart="228.52" departLane="best" from="5677037#26" id="moto335" to="40712688#1" type="moto_motorcycle" />
    <trip depart="229.88" departLane="best" from="420571183" id="moto337" to="41381890#0" type="moto_motorcycle" />
    <trip depart="231.25" departLane="best" from="-37394899#5" id="moto339" to="-5674502#0" type="moto_motorcycle" />
    <trip depart="231.93" departLane="best" from="-5680631#8" id="moto340" to="5675963#5" type="moto_motorcycle" />
    <trip depart="233.30" departLane="best" from="46863753" id="moto342" to="5678784#6" type="moto_motorcycle" />
    <trip depart="233.98" departLane="best" from="46863691#5" id="moto343" to="5680800" type="moto_motorcycle" />
    <trip depart="234.66" departLane="best" from="276024637#30" id="moto344" to="5680852" type="moto_motorcycle" />
    <trip depart="235.34" departLane="best" from="296910902#1" id="moto345" to="420583304#1" type="moto_motorcycle" />
    <trip depart="236.02" departLane="best" from="409285510#0" id="moto346" to="347309380#0" type="moto_motorcycle" />
    <trip depart="236.71" departLane="best" from="460584837#7" id="moto347" to="5681395#1" type="moto_motorcycle" />
    <trip depart="237.39" departLane="best" from="-420880632" id="moto348" to="420875699" type="moto_motorcycle" />
    <trip depart="238.75" departLane="best" from="483704094#11" id="moto350" to="222246286#5" type="moto_motorcycle" />
    <trip depart="239.43" departLane="best" from="-451413253#1" id="moto351" to="-524340771#1" type="moto_motorcycle" />
    <trip depart="240.80" departLane="best" from="46835336#8" id="moto353" to="440633404#3" type="moto_motorcycle" />
    <trip depart="241.48" departLane="best" from="5677167#0" id="moto354" to="420346488#0" type="moto_motorcycle" />
    <trip depart="242.16" departLane="best" from="46835336#21" id="moto355" to="46819497" type="moto_motorcycle" />
    <trip depart="242.85" departLane="best" from="68523775#1" id="moto356" to="46788750" type="moto_motorcycle" />
    <trip depart="244.21" departLane="best" from="654744274#4" id="moto358" to="-222248832#1" type="moto_motorcycle" />
    <trip depart="245.57" departLane="best" from="221585908#1" id="moto360" to="46865764#3" type="moto_motorcycle" />
    <trip depart="246.26" departLane="best" from="226933462#0" id="moto361" to="40711969" type="moto_motorcycle" />
    <trip depart="247.62" departLane="best" from="221777109#7" id="moto363" to="221585914#21" type="moto_motorcycle" />
    <trip depart="248.30" departLane="best" from="483704094#20" id="moto364" to="221586639#0" type="moto_motorcycle" />