<routes xmlns:xsi="http://www.w3.org/2001/XMLSchema-instance" xsi:noNamespaceSchemaLocation="http://sumo.dlr.de/xsd/routes_file.xsd">
    <vType id="veh_passenger" vClass="passenger">
    </vType>
    <trip depart="0.81" departLane="best" from="471659281" id="veh3" to="-27644490#0" type="veh_passenger" />
    <trip depart="4.05" departLane="best" from="426696421#2" id="veh15" to="425850168" type="veh_passenger" />
    <trip depart="4.32" departLane="best" from="251629012" id="veh16" to="71958447#3" type="veh_passenger" />
    <trip depart="4.59" departLane="best" from="15069448" id="veh17" to="330594194" type="veh_passenger" />
    <trip depart="5.13" departLane="best" from="438225725" id="veh19" to="369907197#13" type="veh_passenger" />
    <trip depart="5.67" departLane="best" from="-430128169" id="veh21" to="134363382" type="veh_passenger" />
    <trip depart="6.21" departLane="best" from="-34439046#5" id="veh23" to="130808658#2" type="veh_passenger" />
    <trip depart="7.56" departLane="best" from="-424416256" id="veh28" to="425846511#0" type="veh_passenger" />
    <trip depart="8.10" departLane="best" from="8578539#0" id="veh30" to="39046427#3" type="veh_passenger" />
    <trip depart="8.37" departLane="best" from="27030032#0" id="veh31" to="39120553#1" type="veh_passenger" />
    <trip depart="8.64" departLane="best" from="430126275" id="veh32" to="427400793#0" type="veh_passenger" />
    <trip depart="8.91" departLane="best" from="-430128406" id="veh33" to="-188303695#1" type="veh_passenger" />
    <trip depart="9.18" departLane="best" from="-632976617#1" id="veh34" to="127683182" type="veh_passenger" />
    <trip depart="9.73" departLane="best" from="451949922#4" id="veh36" to="16767770#1" type="veh_passenger" />
    <trip depart="11.35" departLane="best" from="172297061#1" id="veh42" to="-472258016" type="veh_passenger" />
    <trip depart="11.62" departLane="best" from="85796593#2" id="veh43" to="27639666" type="veh_passenger" />
    <trip depart="11.89" departLane="best" from="-28807664#2" id="veh44" to="-233446236#0" type="veh_passenger" />
    <trip depart="12.16" departLane="best" from="-37808165#0" id="veh45" to="38738764#1" type="veh_passenger" />
    <trip depart="12.43" departLane="best" from="426505695#0" id="veh46" to="237048502#1" type="veh_passenger" />
    <trip depart="12.70" departLane="best" from="-27030026#1" id="veh47" to="22999717" type="veh_passenger" />
    <trip depart="12.97" departLane="best" from="8579488#1" id="veh48" to="278992347" type="veh_passenger" />
    <trip depart="14.32" departLane="best" from="-37909836" id="veh53" to="239019906" type="veh_passenger" />
    <trip depart="15.40" departLane="best" from="514557406" id="veh57" to="454576373" type="veh_passenger" />
    <trip depart="17.02" departLane="best" from="-172728802#2" id="veh63" to="53826080#1" type="veh_passenger" />
    <trip depart="17.83" departLane="best" from="454570242" id="veh66" to="587922690#1" type="veh_passenger" />
    <trip depart="18.10" departLane="best" from="-27667565" id="veh67" to="27030155" type="veh_passenger" />
    <trip depart="18.37" departLane="best" from="-27030148#1" id="veh68" to="426927761#3" type="veh_passenger" />
    <trip depart="19.18" departLane="best" from="-448209065#3" id="veh71" to="454683135" type="veh_passenger" />
    <trip depart="19.45" departLane="best" from="184855988#4" id="veh72" to="-448210019#2" type="veh_passenger" />
    <trip depart="19.72" departLane="best" from="252790571#5" id="veh73" to="425854842" type="veh_passenger" />
    <trip depart="20.53" departLane="best" from="19797649#1" id="veh76" to="27667560" type="veh_passenger" />
    <trip depart="20.80" departLane="best" from="-38630640" id="veh77" to="-503239704#0" type="veh_passenger" />
    <trip depart="21.07" departLane="best" from="127682584" id="veh78" to="37538137#0" type="veh_passenger" />
    <trip depart="21.34" departLane="best" from="-430128408" id="veh79" to="-477789804#0" type="veh_passenger" />
    <trip depart="22.15" departLane="best" from="436647799" id="veh82" to="-27030009" type="veh_passenger" />
    <trip depart="22.42" departLane="best" from="-430129640" id="veh83" to="39080244#3" type="veh_passenger" />
    <trip depart="24.85" departLane="best" from="172309981#1" id="veh92" to="183853709" type="veh_passenger" />
    <trip depart="25.66" departLane="best" from="184765909#2" id="veh95" to="130808662" type="veh_passenger" />
    <trip depart="26.74" departLane="best" from="8579904#1" id="veh99" to="436333185#0" type="veh_passenger" />
    <trip depart="27.01" departLane="best" from="68280085#3" id="veh100" to="524259839-AddedOnRampEdge" type="veh_passenger" />
    <trip depart="27.28" departLane="best" from="430128047#0" id="veh101" to="-425934225" type="veh_passenger" />
    <trip depart="28.09" departLane="best" from="151882388#1" id="veh104" to="8103468#1" type="veh_passenger" />
    <trip depart="28.36" departLane="best" from="-448209066" id="veh105" to="430115790" type="veh_passenger" />
    <trip depart="29.45" departLane="best" from="-39080227" id="veh109" to="14520294" type="veh_passenger" />
    <trip depart="29.99" departLane="best" from="255838497#3" id="veh111" to="426510609" type="veh_passenger" />
    <trip depart="30.53" departLane="best" from="237212803#0" id="veh113" to="438638507" type="veh_passenger" />
    <trip depart="31.07" departLane="best" from="-27639666" id="veh115" to="-430118177#0" type="veh_passenger" />
    <trip depart="31.34" departLane="best" from="27691796#1" id="veh116" to="39081891#0" type="veh_passenger" />
    <trip depart="31.61" departLane="best" from="-430128619" id="veh117" to="-38550804#0" type="veh_passenger" />
    <trip depart="32.69" departLane="best" from="244936647#1" id="veh121" to="558094283" type="veh_passenger" />
    <trip depart="32.96" departLane="best" from="-430119363" id="veh122" to="424421108" type="veh_passenger" />
    <trip depart="34.04" departLane="best" from="-27587534#0" id="veh126" to="250047718#1" type="veh_passenger" />
    <trip depart="34.58" departLane="best" from="-27639582#1" id="veh128" to="-451481106#0" type="veh_passenger" />
    <trip depart="34.85" departLane="best" from="-448209066" id="veh129" to="557392497#1" type="veh_passenger" />
    <trip depart="35.12" departLane="best" from="454745478#1" id="veh130" to="465984314" type="veh_passenger" />
    <trip depart="35.93" departLane="best" from="310454388#0" id="veh133" to="8375715#1" type="veh_passenger" />
    <trip depart="37.01" departLane="best" from="-39048475#1" id="veh137" to="-37916524#3" type="veh_passenger" />
    <trip depart="37.28" departLane="best" from="-37538137#0" id="veh138" to="330594204" type="veh_passenger" />
    <trip depart="37.55" departLane="best" from="-462656809" id="veh139" to="37916533#2" type="veh_passenger" />
    <trip depart="37.82" departLane="best" from="39053420#0" id="veh140" to="-431548666#0" type="veh_passenger" />
    <trip depart="38.09" departLane="best" from="35472704" id="veh141" to="124962748#3" type="veh_passenger" />
    <trip depart="38.36" departLane="best" from="231404788#2" id="veh142" to="493709855#1" type="veh_passenger" />
    <trip depart="39.44" departLane="best" from="359790121#3" id="veh146" to="105411943" type="veh_passenger" />
    <trip depart="39.71" departLane="best" from="39120544#0" id="veh147" to="330594187#1" type="veh_passenger" />
    <trip depart="41.60" departLane="best" from="426505743#1" id="veh154" to="448210021#0" type="veh_passenger" />
    <trip depart="41.87" departLane="best" from="487911486#0" id="veh155" to="-445750758#5" type="veh_passenger" />
    <trip depart="42.41" departLane="best" from="425850165#1" id="veh157" to="469589498" type="veh_passenger" />
    <trip depart="42.68" departLane="best" from="172745482#1" id="veh158" to="38630650#3" type="veh_passenger" />
    <trip depart="42.95" departLane="best" from="-39078623" id="veh159" to="545303396#0" type="veh_passenger" />
    <trip depart="43.22" departLane="best" from="439630284" id="veh160" to="72767330" type="veh_passenger" />
    <trip depart="43.76" departLane="best" from="-185627525" id="veh162" to="425930859" type="veh_passenger" />
    <trip depart="44.57" departLane="best" from="426927713#1" id="veh165" to="125451135#1" type="veh_passenger" />
    <trip depart="45.11" departLane="best" from="448213345#0" id="veh167" to="448209065#3" type="veh_passenger" />
    <trip depart="45.38" departLane="best" from="-430127946" id="veh168" to="430128408" type="veh_passenger" />
    <trip depart="46.19" departLane="best" from="-184745785#1" id="veh171" to="-430126494#0" type="veh_passenger" />
    <trip depart="46.46" departLane="best" from="-8579169#3" id="veh172" to="450678401" type="veh_passenger" />
    <trip depart="46.73" departLane="best" from="679174598#0" id="veh173" to="131628104#0" type="veh_passenger" />
    <trip depart="47.00" departLane="best" from="369630802#1" id="veh174" to="231281385#2" type="veh_passenger" />
    <trip depart="47.27" departLane="best" from="79160529" id="veh175" to="28807592#3" type="veh_passenger" />
    <trip depart="47.54" departLane="best" from="587922690#0" id="veh176" to="-37916524#2" type="veh_passenger" />
    <trip depart="47.81" departLane="best" from="71958447#4" id="veh177" to="-427348456" type="veh_passenger" />
    <trip depart="48.08" departLane="best" from="672784702#0" id="veh178" to="124962784" type="veh_passenger" />
    <trip depart="48.36" departLane="best" from="-377396455#1" id="veh179" to="239019906" type="veh_passenger" />
    <trip depart="48.63" departLane="best" from="39081435" id="veh180" to="16765274#3" type="veh_passenger" />
    <trip depart="49.17" departLane="best" from="16238438#2" id="veh182" to="369907196#5" type="veh_passenger" />
    <trip depart="49.71" departLane="best" from="-128508551#1" id="veh184" to="524259147#1" type="veh_passenger" />
    <trip depart="50.25" departLane="best" from="39120556#0" id="veh186" to="39081424#2" type="veh_passenger" />
    <trip depart="50.52" departLane="best" from="133333367#0" id="veh187" to="-27029999#0" type="veh_passenger" />
    <trip depart="52.14" departLane="best" from="-38841784#3" id="veh193" to="237048446#6" type="veh_passenger" />
    <trip depart="52.41" departLane="best" from="587922690#4" id="veh194" to="39082320#0" type="veh_passenger" />
    <trip depart="52.68" departLane="best" from="488673698" id="veh195" to="38583815#0" type="veh_passenger" />
    <trip depart="53.22" departLane="best" from="-123103598#3" id="veh197" to="133333368#0" type="veh_passenger" />
    <trip depart="53.76" departLane="best" from="373580563" id="veh199" to="255845156#3" type="veh_passenger" />
    <trip depart="54.30" departLane="best" from="230784085#1" id="veh201" to="490216502" type="veh_passenger" />
    <trip depart="54.57" departLane="best" from="345301157#1" id="veh202" to="183462546" type="veh_passenger" />
    <trip depart="54.84" departLane="best" from="427243062#0" id="veh203" to="426599087#1" type="veh_passenger" />
    <trip depart="55.65" departLane="best" from="-431550230" id="veh206" to="269678077#6" type="veh_passenger" />
    <trip depart="57.54" departLane="best" from="-374915865" id="veh213" to="237455931" type="veh_passenger" />
    <trip depart="57.81" departLane="best" from="-425691410" id="veh214" to="629122328" type="veh_passenger" />
    <trip depart="58.35" departLane="best" from="-436333197#0" id="veh216" to="438470921" type="veh_passenger" />
    <trip depart="58.89" departLane="best" from="37916435" id="veh218" to="8547727#0" type="veh_passenger" />
    <trip depart="59.16" departLane="best" from="27691979" id="veh219" to="59515641#0" type="veh_passenger" />
    <trip depart="59.97" departLane="best" from="427400867#1" id="veh222" to="325044597#0" type="veh_passenger" />
    <trip depart="60.51" departLane="best" from="231281375#2" id="veh224" to="-8103459#2" type="veh_passenger" />
    <trip depart="60.78" departLane="best" from="-436325257" id="veh225" to="39046000" type="veh_passenger" />
    <trip depart="61.59" departLane="best" from="-27639638" id="veh228" to="133124798#0" type="veh_passenger" />
    <trip depart="61.86" departLane="best" from="-462656809" id="veh229" to="171847941#0-AddedOffRampEdge" type="veh_passenger" />
    <trip depart="62.40" departLane="best" from="-430128409" id="veh231" to="416453603" type="veh_passenger" />
    <trip depart="62.67" departLane="best" from="39048479" id="veh232" to="-251629009#1" type="veh_passenger" />
    <trip depart="62.94" departLane="best" from="172868748#2" id="veh233" to="312280065#0" type="veh_passenger" />
    <trip depart="64.29" departLane="best" from="15260400" id="veh238" to="-128511296" type="veh_passenger" />
    <trip depart="64.56" departLane="best" from="130808657#0" id="veh239" to="426603442#1" type="veh_passenger" />
    <trip depart="65.37" departLane="best" from="261785599#0" id="veh242" to="37916499" type="veh_passenger" />
    <trip depart="65.91" departLane="best" from="196799738#0" id="veh244" to="-172868948" type="veh_passenger" />
    <trip depart="67.26" departLane="best" from="16975933" id="veh249" to="351360736" type="veh_passenger" />
    <trip depart="67.81" departLane="best" from="-39048494#4" id="veh251" to="252792311" type="veh_passenger" />
    <trip depart="68.62" departLane="best" from="424211905#2" id="veh254" to="229480221#1" type="veh_passenger" />
    <trip depart="69.43" departLane="best" from="-172728802#1" id="veh257" to="301151225#0" type="veh_passenger" />
    <trip depart="69.70" departLane="best" from="9931242#0" id="veh258" to="186371501#3" type="veh_passenger" />
    <trip depart="70.51" departLane="best" from="62265344#0" id="veh261" to="-430128415#0" type="veh_passenger" />
    <trip depart="71.32" departLane="best" from="27333554#0" id="veh264" to="-469771179#0" type="veh_passenger" />
    <trip depart="71.86" departLane="best" from="-418365015" id="veh266" to="37916640#0" type="veh_passenger" />
    <trip depart="72.13" departLane="best" from="409861330#1" id="veh267" to="-37916466" type="veh_passenger" />
    <trip depart="73.75" departLane="best" from="38738605#5" id="veh273" to="38738612#2" type="veh_passenger" />
    <trip depart="74.02" departLane="best" from="-35472705" id="veh274" to="427348429" type="veh_passenger" />
    <trip depart="74.29" departLane="best" from="430128618" id="veh275" to="37916449#1" type="veh_passenger" />
    <trip depart="74.56" departLane="best" from="-38631692#0" id="veh276" to="79765662" type="veh_passenger" />
    <trip depart="74.83" departLane="best" from="425925625" id="veh277" to="185627524#1" type="veh_passenger" />
    <trip depart="75.64" departLane="best" from="430128415#0" id="veh280" to="430128620" type="veh_passenger" />
    <trip depart="76.99" departLane="best" from="-453637962" id="veh285" to="430127946" type="veh_passenger" />
    <trip depart="77.26" departLane="best" from="252274187#1-AddedOffRampEdge" id="veh286" to="27030123#0" type="veh_passenger" />
    <trip depart="78.61" departLane="best" from="230628521#3" id="veh291" to="38360276#5" type="veh_passenger" />
    <trip depart="80.50" departLane="best" from="-27667565" id="veh298" to="424630819#6" type="veh_passenger" />
    <trip depart="81.04" departLane="best" from="38738605#5" id="veh300" to="39048508#1" type="veh_passenger" />
    <trip depart="82.12" departLane="best" from="27639642#1" id="veh304" to="265726446" type="veh_passenger" />
    <trip depart="83.47" departLane="best" from="-427400685#1" id="veh309" to="-38508521" type="veh_passenger" />
    <trip depart="83.74" departLane="best" from="251629009#0" id="veh310" to="427018768" type="veh_passenger" />
    <trip depart="85.09" departLane="best" from="-427400793#2" id="veh315" to="-514557409" type="veh_passenger" />
    <trip depart="85.36" departLane="best" from="-425942443#0" id="veh316" to="-133125062#2" type="veh_passenger" />
    <trip depart="85.63" departLane="best" from="248091980#0" id="veh317" to="128515117#0" type="veh_passenger" />
    <trip depart="85.90" departLane="best" from="75316979#1" id="veh318" to="330594204" type="veh_passenger" />
    <trip depart="86.17" departLane="best" from="39014094" id="veh319" to="-38738777#2" type="veh_passenger" />
    <trip depart="88.07" departLane="best" from="-27639585#5" id="veh326" to="38738777#7" type="veh_passenger" />
    <trip depart="88.34" departLane="best" from="-246307536#2" id="veh327" to="-39081424#1" type="veh_passenger" />
    <trip depart="88.61" departLane="best" from="27238962#2" id="veh328" to="15808064#1" type="veh_passenger" />
    <trip depart="88.88" departLane="best" from="8579210#0" id="veh329" to="-38360276#0" type="veh_passenger" />
    <trip depart="89.15" departLane="best" from="424389513#4" id="veh330" to="37916601" type="veh_passenger" />
    <trip depart="89.69" departLane="best" from="244936639" id="veh332" to="245893027" type="veh_passenger" />
    <trip depart="90.23" departLane="best" from="8578566#1" id="veh334" to="16238438#1" type="veh_passenger" />
    <trip depart="91.04" departLane="best" from="-430123092" id="veh337" to="-448209064#0" type="veh_passenger" />
    <trip depart="91.58" departLane="best" from="-424630837#0" id="veh339" to="-27030125#0" type="veh_passenger" />
    <trip depart="91.85" departLane="best" from="-128519864" id="veh340" to="245893027" type="veh_passenger" />
    <trip depart="92.12" departLane="best" from="27691635#0" id="veh341" to="134462239#1" type="veh_passenger" />
    <trip depart="92.39" departLane="best" from="-430128409" id="veh342" to="424211905#1" type="veh_passenger" />
    <trip depart="92.66" departLane="best" from="39048400" id="veh343" to="246848875" type="veh_passenger" />
    <trip depart="93.20" departLane="best" from="425934198#2" id="veh345" to="38738604" type="veh_passenger" />
    <trip depart="93.74" departLane="best" from="185627523" id="veh347" to="321139486" type="veh_passenger" />
    <trip depart="94.55" departLane="best" from="-401300455#3" id="veh350" to="16257975#4" type="veh_passenger" />
    <trip depart="95.09" departLane="best" from="-504569149" id="veh352" to="-38738605#1" type="veh_passenger" />
    <trip depart="95.36" departLane="best" from="38631705" id="veh353" to="423640299#0" type="veh_passenger" />
    <trip depart="95.63" departLane="best" from="59515645#1" id="veh354" to="27639586#3" type="veh_passenger" />
    <trip depart="96.17" departLane="best" from="-230629146" id="veh356" to="237861718#0" type="veh_passenger" />
    <trip depart="96.71" departLane="best" from="-293597698#1" id="veh358" to="639543654#1" type="veh_passenger" />
    <trip depart="96.98" departLane="best" from="430118177#0" id="veh359" to="369907165" type="veh_passenger" />
    <trip depart="97.79" departLane="best" from="-230629153" id="veh362" to="426696423" type="veh_passenger" />
    <trip depart="98.87" departLane="best" from="233692924" id="veh366" to="-277478974#0" type="veh_passenger" />
    <trip depart="99.14" departLane="best" from="128515119" id="veh367" to="176499525" type="veh_passenger" />
    <trip depart="99.95" departLane="best" from="-498875212" id="veh370" to="585730980#0" type="veh_passenger" />
    <trip depart="100.22" departLane="best" from="427018761#5" id="veh371" to="329262588" type="veh_passenger" />
    <trip depart="100.49" departLane="best" from="227607069" id="veh372" to="16765621#2" type="veh_passenger" />
    <trip depart="101.30" departLane="best" from="8375719#0" id="veh375" to="39053432#4" type="veh_passenger" />
    <trip depart="101.57" departLane="best" from="255845156#1-AddedOnRampEdge" id="veh376" to="232196570#1" type="veh_passenger" />
    <trip depart="101.84" departLane="best" from="-427243076" id="veh377" to="19797649#3" type="veh_passenger" />
    <trip depart="103.19" departLane="best" from="-38709145" id="veh382" to="71958447#4" type="veh_passenger" />
    <trip depart="103.46" departLane="best" from="290026187#2" id="veh383" to="-59515641#0" type="veh_passenger" />
    <trip depart="103.73" departLane="best" from="-39081849#9" id="veh384" to="329613766#0" type="veh_passenger" />
    <trip depart="104.54" departLane="best" from="230593245" id="veh387" to="-381973560" type="veh_passenger" />
    <trip depart="105.62" departLane="best" from="78407131#4" id="veh391" to="-635718958#0" type="veh_passenger" />
    <trip depart="106.16" departLane="best" from="53826080#0" id="veh393" to="27639660" type="veh_passenger" />
    <trip depart="106.44" departLane="best" from="454601627" id="veh394" to="450555265" type="veh_passenger" />
    <trip depart="106.98" departLane="best" from="183489045#7" id="veh396" to="558094283" type="veh_passenger" />
    <trip depart="108.06" departLane="best" from="231715373#1" id="veh400" to="-39078062#0" type="veh_passenger" />
    <trip depart="108.33" departLane="best" from="252790570#0" id="veh401" to="184855990" type="veh_passenger" />
    <trip depart="108.60" departLane="best" from="269678077#4" id="veh402" to="312295511#0" type="veh_passenger" />
    <trip depart="110.49" departLane="best" from="37916346#0" id="veh409" to="430128562" type="veh_passenger" />
    <trip depart="110.76" departLane="best" from="79159521" id="veh410" to="27587525#0" type="veh_passenger" />
    <trip depart="111.84" departLane="best" from="245958752#0" id="veh414" to="248091975" type="veh_passenger" />
    <trip depart="113.19" departLane="best" from="370514751" id="veh419" to="438471390#1" type="veh_passenger" />
    <trip depart="113.73" departLane="best" from="15260356" id="veh421" to="16976549" type="veh_passenger" />
    <trip depart="114.00" departLane="best" from="39053431#3" id="veh422" to="426927728#5" type="veh_passenger" />
    <trip depart="114.54" departLane="best" from="-27030139#2" id="veh424" to="38740544" type="veh_passenger" />
    <trip depart="116.97" departLane="best" from="27474546#0" id="veh433" to="430123092" type="veh_passenger" />
    <trip depart="117.24" departLane="best" from="-424212159" id="veh434" to="-27587529#3" type="veh_passenger" />
    <trip depart="118.05" departLane="best" from="-39053408#0" id="veh437" to="252790570#5" type="veh_passenger" />
    <trip depart="119.94" departLane="best" from="-436333207" id="veh444" to="437233650" type="veh_passenger" />
    <trip depart="121.02" departLane="best" from="8579169#0" id="veh448" to="14406394#3" type="veh_passenger" />
    <trip depart="121.56" departLane="best" from="-465984314" id="veh450" to="35472702" type="veh_passenger" />
    <trip depart="121.83" departLane="best" from="38630336#1" id="veh451" to="426505734#0" type="veh_passenger" />
    <trip depart="122.91" departLane="best" from="28807590" id="veh455" to="192583208#10" type="veh_passenger" />
    <trip depart="123.72" departLane="best" from="37909812#1" id="veh458" to="436333197#1" type="veh_passenger" />
    <trip depart="123.99" departLane="best" from="338991640#3" id="veh459" to="491421502" type="veh_passenger" />
    <trip depart="124.53" departLane="best" from="199890396#3" id="veh461" to="369907208#1" type="veh_passenger" />
    <trip depart="124.80" departLane="best" from="39081891#0" id="veh462" to="-277478965#0" type="veh_passenger" />
    <trip depart="125.34" departLane="best" from="-425691410" id="veh464" to="-39048446" type="veh_passenger" />
    <trip depart="127.24" departLane="best" from="672784702#0" id="veh471" to="-39053420#0" type="veh_passenger" />
    <trip depart="128.86" departLane="best" from="227607069" id="veh477" to="39081849#7" type="veh_passenger" />
    <trip depart="129.13" departLane="best" from="37916541" id="veh478" to="373576673#2" type="veh_passenger" />
    <trip depart="129.67" departLane="best" from="-377396455#1" id="veh480" to="-558094274" type="veh_passenger" />
    <trip depart="130.75" departLane="best" from="-53801206#2" id="veh484" to="231355575#6" type="veh_passenger" />
    <trip depart="131.02" departLane="best" from="-39049641#3" id="veh485" to="587918116#3" type="veh_passenger" />
    <trip depart="132.10" departLane="best" from="37916494#7" id="veh489" to="426505721" type="veh_passenger" />
    <trip depart="132.64" departLane="best" from="391398180" id="veh491" to="-39117745#0" type="veh_passenger" />
    <trip depart="132.91" departLane="best" from="183489045#7" id="veh492" to="-334003225#0" type="veh_passenger" />
    <trip depart="133.18" departLane="best" from="231715366#2" id="veh493" to="231355575#2" type="veh_passenger" />
    <trip depart="133.45" departLane="best" from="627182616#11" id="veh494" to="-192583208#4" type="veh_passenger" />
    <trip depart="133.99" departLane="best" from="626503763" id="veh496" to="444667679" type="veh_passenger" />
    <trip depart="134.53" departLane="best" from="256507153#1" id="veh498" to="73532302#4" type="veh_passenger" />
    <trip depart="135.07" departLane="best" from="-427253378" id="veh500" to="-38585149#0" type="veh_passenger" />
    <trip depart="135.88" departLane="best" from="277478969#1" id="veh503" to="-16326412#3" type="veh_passenger" />
    <trip depart="136.42" departLane="best" from="-38738777#4" id="veh505" to="351751479" type="veh_passenger" />
    <trip depart="136.96" departLane="best" from="-430122065#0" id="veh507" to="-467061961" type="veh_passenger" />
    <trip depart="137.23" departLane="best" from="448209061" id="veh508" to="172744389" type="veh_passenger" />
    <trip depart="137.50" departLane="best" from="-39056449" id="veh509" to="490216500" type="veh_passenger" />
    <trip depart="138.85" departLane="best" from="-165472958#7" id="veh514" to="430119365" type="veh_passenger" />
    <trip depart="139.39" departLane="best" from="-424632407" id="veh516" to="-237455926#0" type="veh_passenger" />
    <trip depart="139.66" departLane="best" from="39120553#1" id="veh517" to="277478970#0" type="veh_passenger" />
    <trip depart="139.93" departLane="best" from="405495014#2" id="veh518" to="27029999#0" type="veh_passenger" />
    <trip depart="141.01" departLane="best" from="425926573#1" id="veh522" to="451481796" type="veh_passenger" />
    <trip depart="141.82" departLane="best" from="38630633" id="veh525" to="27474565" type="veh_passenger" />
    <trip depart="143.98" departLane="best" from="39046616#0" id="veh533" to="439628880" type="veh_passenger" />
    <trip depart="145.07" departLane="best" from="128027699" id="veh537" to="246848863#0" type="veh_passenger" />
    <trip depart="145.61" departLane="best" from="185783795#6" id="veh539" to="39077901#5" type="veh_passenger" />
    <trip depart="146.15" departLane="best" from="543486851" id="veh541" to="-255905293#2" type="veh_passenger" />
    <trip depart="147.23" departLane="best" from="27644487#0" id="veh545" to="33968269" type="veh_passenger" />
    <trip depart="147.77" departLane="best" from="131628108#0" id="veh547" to="39078041#1" type="veh_passenger" />
    <trip depart="148.04" departLane="best" from="418821251" id="veh548" to="451949922#4" type="veh_passenger" />
    <trip depart="148.31" departLane="best" from="39056442#0" id="veh549" to="679148658" type="veh_passenger" />
    <trip depart="148.85" departLane="best" from="37538131#0" id="veh551" to="-493727321" type="veh_passenger" />
    <trip depart="149.12" departLane="best" from="-377396455#1" id="veh552" to="438224045" type="veh_passenger" />
    <trip depart="149.66" departLane="best" from="27639582#2" id="veh554" to="430127943" type="veh_passenger" />
    <trip depart="149.93" departLane="best" from="430126618" id="veh555" to="72614060" type="veh_passenger" />
    <trip depart="150.20" departLane="best" from="427243062#1" id="veh556" to="38550804#3" type="veh_passenger" />
    <trip depart="150.47" departLane="best" from="369907195#1" id="veh557" to="-172728794" type="veh_passenger" />
    <trip depart="151.28" departLane="best" from="39046625#7" id="veh560" to="164417936" type="veh_passenger" />
    <trip depart="152.09" departLane="best" from="172297073" id="veh563" to="-39053430" type="veh_passenger" />
    <trip depart="152.63" departLane="best" from="405498518#0" id="veh565" to="-465895356#0" type="veh_passenger" />
    <trip depart="153.17" departLane="best" from="134462241#2" id="veh567" to="424630837#0" type="veh_passenger" />
    <trip depart="154.79" departLane="best" from="424136014#0" id="veh573" to="-37916456#1" type="veh_passenger" />
    <trip depart="155.06" departLane="best" from="192583209#0" id="veh574" to="131655879" type="veh_passenger" />
    <trip depart="155.60" departLane="best" from="37916421#2" id="veh576" to="-230784029#0" type="veh_passenger" />
    <trip depart="156.14" departLane="best" from="-133125062#1" id="veh578" to="154421023#0" type="veh_passenger" />
    <trip depart="156.68" departLane="best" from="-438470509" id="veh580" to="172744259#1" type="veh_passenger" />
    <trip depart="157.22" departLane="best" from="-425691410" id="veh582" to="229481575#0" type="veh_passenger" />
    <trip depart="158.03" departLane="best" from="-27587529#0" id="veh585" to="449611526#1" type="veh_passenger" />
    <trip depart="158.57" departLane="best" from="53801206#4" id="veh587" to="449612384" type="veh_passenger" />
    <trip depart="159.38" departLane="best" from="-37916533#2" id="veh590" to="-16257487#0" type="veh_passenger" />
    <trip depart="159.65" departLane="best" from="-76695774#0" id="veh591" to="430127541" type="veh_passenger" />
    <trip depart="160.46" departLane="best" from="430126617" id="veh594" to="-632976617#1" type="veh_passenger" />
    <trip depart="160.73" departLane="best" from="27660279#0" id="veh595" to="277135943" type="veh_passenger" />
    <trip depart="161.54" departLane="best" from="-418365015" id="veh598" to="27639806#2" type="veh_passenger" />
    <trip depart="162.62" departLane="best" from="427018829#1" id="veh602" to="-56394526#4" type="veh_passenger" />
    <trip depart="163.16" departLane="best" from="278992352#0" id="veh604" to="426927754#0" type="veh_passenger" />