<routes xmlns:xsi="http://www.w3.org/2001/XMLSchema-instance" xsi:noNamespaceSchemaLocation="http://sumo.dlr.de/xsd/routes_file.xsd">
    <vType id="truck_truck" vClass="truck" />
    <vehicle depart="0.00" departLane="best" id="truck0" type="truck_truck">
        <route edges="37538131#3 -293597698#3 35472694#0 77707877 565483610#0 565483612 172744259#1 -59515639 -39051672#1 -39051672#0 172743779 537956236 -60685694#0 -172745429#3" />
    </vehicle>
    <vehicle depart="1.78" departLane="best" id="truck3" type="truck_truck">
        <route edges="476994770 8579726 231226535#1 454692163 454692167#0 454692167#1 195270962 454697529#0 454697529#1 454693652 454698074 333172735#1 333172735#3 333172735#5 333172735#6 333172735#7 333172735#8 329613766#0 329613766#1 237587407#0 237587407#1 237587407#3 237587407#4 237587407#5 454576377#0 454576377#1 424211021#0 424211021#2 424211021#3 424211021#4 211556987#8 211556987#9 211556987#10 211556987#11 211556987#12 230628532#0 230628532#1 424211533 230784038#0 230784038#1 230784024 230784029#0 230784029#1 230784029#2 230784034 230784037 230784035 516406073 14406970#0 14406970#1 14406970#2 417676407 407754202 230784086#0 230784086#1 370514753#0 370514753#1 27644520#0 27639641#0 27639641#1 27639641#2 373580563 661786919#3 -27644487#2" />
    </vehicle>
    <vehicle depart="4.75" departLane="best" id="truck8" type="truck_truck">
        <route edges="-431548666#1 -431548665 37916494#5 37916527#2 37916527#3 128508563#3 128508563#4 128508563#5 128508563#6 128508563#7 128508563#8 128508563#9 230398376 17446828 237048431 235497116 128519863#0 128519863#1 229739163 212723119#1 212723119#3 565903323#0 565903323#1 128519864 211060895 237212803#0 237212803#1 237212803#2 237212803#3 -211061213#1 -211061213#0 -211455037#3 -211455037#2 -211455037#1 -211455037#0 60252054 -244936600 -244936602 -211455035#4 -211455035#3 -211455035#2 -211455035#1 -211455035#0 -27030148#2 -27030148#1 -27030148#0 38738777#0 38738777#1 38738776#0 38738776#1 38738776#2 363528979#0 363528979#1 363528979#2 246708373 38738780 62268206 211456024 211456026#0 577924800#2 577924800#4 8578611 427243067 426927728#0 426927728#1 426927728#2 426927728#3 426927728#5 425942465#1 426927766#1 27668372#0 27668372#1 425942461 -425942443#2 -425942443#1 -425942443#0 8547794#0 8547794#1 8547794#2 415845846 325044597#0 325044597#1 351360736 325044599#0 325044599#2 125451184#0 255818947#0 439768950#0 8149120#0 8149120#1 8149120#2 8149120#3 8149120#4 231350472#1 427018817#1 427018817#2 427018758#3 427018758#4 427018758#5 427018829#3 427018829#4 427018831 369915384#2 255845157#0 255845157#1 124962721#0 27639645#1 661786919#2 661786919#3 661786919#4 679174375#0 679174375#2 679174374 -436333204 436333206#1 436333206#3 679174597 -27639585#5 -27639585#4 -27639585#3 -27639585#2 -27639585#1 -27639585#0 185783795#12 185783795#13 369907195#1 369907195#2" />
    </vehicle>
    <vehicle depart="12.48" departLane="best" id="truck21" type="truck_truck">
        <route edges="-27639631#0 202867556#1 230784544#1 436333192#0 436333192#1 436488794 27639571 230784085#3 231350452#1 427253368#1 231350459#0 231350459#1 231350459#2 231350459#3 4567097 231345867#0 231345867#1 450833653#0-AddedOnRampEdge 450833653#0 450833653#1 426504423 405498518#0 405498518#1 405498518#2 265227056#1 265227056#2 265227056#3 426505724#1 14518869 449612685 -28807664#7 -28807664#5 -59515646#6 -59515646#5 -59515646#4 -59515646#3 -59515646#2 -59515646#1 -59515646#0 -39048457#1 -60685694#2" />
    </vehicle>
    <vehicle depart="13.07" departLane="best" id="truck22" type="truck_truck">
        <route edges="-33968289 -228990067 667037976#0 667037976#1 667037976#2 667037976#3 667037976#4 667037976#5 487613356#0 487613356#1 487613356#2 487613358 183853728#0 183853728#1 183853728#3 517410414#0 62268206 211456024 211456026#0 577924800#2 14406394#0 14406394#1 14406394#3 422062695#0 422062695#1 231715377 231715374#0 231715374#0-AddedOffRampEdge 231715374#1 231715370 231715375#0 231715375#1 38631708 72767342-AddedOnRampEdge 72767342 38631710 72614035#0 231713631#0 425929162#0 425929162#0-AddedOffRampEdge 425929162#1 425929162#2 278916131 199121003 62265344#0 62265344#1 62265345#1 133124798#0 133124798#1 8579904#0 8579904#1 134362685#0 134362685#1 405495014#0 405495014#1 603688830#0 603688830#1 230621491 8579917 409861830#0 454570252#1 133125089" />
    </vehicle>
    <vehicle depart="17.23" departLane="best" id="truck29" type="truck_truck">
        <route edges="27639627#0 27639577#0 27639577#1 27639577#2 280118522#3 420384665 632976630#0 632976630#1 632976630#2 436488791#0 436488791#1 16326434#0 16326434#1 16326434#2 16326434#5 16326434#6 16326434#7 27570521#0 27570521#1 27570521#2 27570521#3 27570521#4 427018862#0 427018862#1 427018862#2 427018862#3 -255905293#1 436488790 231350474#1 4567096 234731992#0 321139490#0 4567105 8547798#0 401762565#0 401762565#1 -325044600#0 211456025 460071969 638729322#0 -427243116#0 -125451142#2 -125451142#1 -125451142#0 425942465#1 426927766#1 27668372#0 27668372#1 39080241 39080244#4" />
    </vehicle>
    <vehicle depart="21.99" departLane="best" id="truck37" type="truck_truck">
        <route edges="-560269842#1 560269841 172297666#2 -426507056 229480632#0 229480632#1 284347439#3 284347439#4 450878336 450878337#0 229480221#0 229480221#1 426510606 262851660#0 262851660#1 262851660#2 262851660#3 672491572 262851658 4534456 129439666 426510831 8578563#0 8578563#1 8090812 578287066#0 578287066#2 196799733#0 196799733#1 230628541#0 230628541#1 230628541#2 230628541#3 230628541#4 230628541#5 230628537#0 230628537#1 230628537#2 230628537#3 230628537#4 230628537#5 230628537#6 230628537#7 282974683#0 282974683#1 230628536#0 230628536#1 230628536#2 230628536#3 230628536#4 230628536#5 230628536#6 230628531#0 230628531#1 230628531#2 241318602#0 241318602#1 241318602#2 241318602#3 230628520#0 230628520#1 261785599#0 261785599#1 261785599#2 261785599#3 230628521#0 230628521#1 230628521#2 230628521#3 231390618#0 231390618#1 231390618#2 231390618#3 231390618#4 577924801 28725762 176499525 231281377#0 38738786 427400671#6 27030066#0 27030066#1 27030066#2 27030066#3 27030066#4 27030066#5 -79162696" />
    </vehicle>
    <vehicle depart="22.58" departLane="best" id="truck38" type="truck_truck">
        <route edges="27639664#1 27644484#0 27644484#1 14520855 231350473#0 231350473#1 14520867 14520983 576954816#0 576954816#1 576954816#2 576954816#3 337865806 27660307 407757111#0 407757111#1 407757111#2 -14521385#0 28788350#0 28788350#1 211456025 460071969 638729322#0 638729322#2 638729322#3 638729322#4 638729322#5 638729322#6 638729322#7 638729322#8 638729322#9 638729322#10 638729322#11 577924801 28725762 176499525 231281377#0 38738786 427400671#6 27030066#0 27030066#1 27030066#2 27030066#3 27030066#4 27030066#5 27030066#6 27030066#7 27030066#8 27030066#9 211061213#0 211061213#1 211061210#0 211061210#1-AddedOnRampEdge 211061210#1 246708371 211061212 -27030009 -430126494#1 -27030017#3 -27030017#2 -27030017#1 -27030017#0 310454395#1 310454395#2 310454395#3 37916655#0 37916655#1 62267044 183462542#1 -27238962#3 -27238962#2 -27238962#1 -142906167#1 -130808660#2 310454387#1 310454387#2 310454387#3 128511294#0" />
    </vehicle>
    <vehicle depart="25.56" departLane="best" id="truck43" type="truck_truck">
        <route edges="-37808173#2 -37808173#1 -37808173#0 37808165#1 -131655876 -39081886#0 -39081885 -131655878 -39081891#1 -39081891#0 -237455925#2 -237455925#0 -547305685#3 -547305685#2 447117757#2 447117757#3 447117757#4 447117757#5 447117757#6 447117757#7 132236345#0 132236345#1 132236345#2 132236345#3 132236345#4 132236345#5 132236345#6 132236345#7 132236345#8 237587387#0 237587387#1 237587387#2 299532298 183462531 299532299 183752948 183462542#0 183462542#1 183462562#0 183462562#1 183462562#2 310454393 371375600#0 371375600#1 128515111 620987193#0 620987193#1 229739161#0 229739161#0-AddedOffRampEdge 229739161#1 212723116 168667916 278920581 241926086 565519143 72921505 38508528 366428463#1 38508529" />
    </vehicle>
    <vehicle depart="29.12" departLane="best" id="truck49" type="truck_truck">
        <route edges="39014083 39014084#0 38570166#1 38570166#2 192583209#1 192583208#1 192583208#2 39048510#0 39048510#2 450506570 192583210#4 192583210#5 28807588#0 28807588#1 -172747396#1 79770592 -39046625#2 -39046625#1 -39046625#0 28807592#0 28807592#1 28807592#3 28807592#4 28807592#5 28807592#6 491638977#0 491638977#1 491638977#2 491638977#3 491638975 555959158#0 555959158#1 280118519#8 329094182#1 229480983#1 27639608#0 27639608#1 27639608#2 27639608#3 27639608#4 27639585#3 27639585#4 27639585#5 27639561#0 27639561#1 27639561#2 27644492#0 27644492#1 27644493#0 -373580561#2 -373580561#1 -27639646#1 -27639646#0 436333141#0 436333141#1 436333141#2 325015629#0 325015629#1 27733787#6" />
    </vehicle>
    <vehicle depart="31.50" departLane="best" id="truck53" type="truck_truck">
        <route edges="454570246 454570245 289936233 454570243 48661212#0 470252930#0 470252930#1 470252930#2 470252930#3 48661200#1 425850165#1 425850171#0 425850171#1 369630800 46892381#0 46892381#1 46892381#2 425456021 8579093#0 8579093#1 234827311#1 234827311#2 252274190 8103465#0 8103465#1 223479041#0 223479041#1 8103470#0 8579183 211060852#0 211060852#1 211060852#2 8579184 196799745#1 8579185 -189938124 211060857#0 211060857#1-AddedOnRampEdge 211060857#1 -211060895 -128519864 79669498#0 79669498#1 128511291#0 128511291#1 128511291#2 128511291#3 237169411 310454389 37916642#1 37916642#2 27030034#0 27030034#1 128511295#1 128511297#0" />
    </vehicle>
    <vehicle depart="32.09" departLane="best" id="truck54" type="truck_truck">
        <route edges="246708378 -16975352 -16976549 -462992753 211060853 211060857#0 211060857#1-AddedOnRampEdge 211060857#1 237212803#0 237212803#1 237212803#2 237212803#3 -211061213#1 -211061213#0 -211455037#3 -211455037#2 -211455037#1 -211455037#0 60252054 -244936600 -244936602 -211455035#4 -211455035#3 -211455035#2 -211455035#1 -211455035#0 -27030148#2 -27030148#1 -27030148#0 38738777#0 38738777#1 38738776#0 38738776#1 38738776#2 363528979#0 363528979#1 363528979#2 246708373 38738780 62268206 211456024 211456026#0 577924800#2 577924800#4 8578611 427243067 426927728#0 427243056#0 -427243088#1" />
    </vehicle>
    <vehicle depart="35.06" departLane="best" id="truck59" type="truck_truck">
        <route edges="-123103598#3 -27030139#2 -405489977#0 -27030148#2 -27030148#1 -27030148#0 38738777#0 38738777#1 38738776#0 38738776#1 38738776#2 363528979#0 363528979#1 363528979#2 246708373 38738780 62268206 211456024 211456026#0 577924800#2 577924800#4 28725760#0 28725760#1 28725760#2 241318604#0 241318604#1 230628539#0 230628539#1 230628539#2 231341013#0 231341013#1 231341013#2 231341013#3 230628530#0 230628530#1 230628530#2 230628530#3 230628530#4 635399925 230628530#7 230628533#0 230628533#1 230628533#2 230628533#3 230628533#4 423987651#0 423987651#1 423987651#2 423987650#0 423987650#1 230628517#0 230628517#1 230628517#2 230628517#3 230628517#4 230628517#6 230628517#7 230628534#1 230628534#2 196799732 577995980 577995980-AddedOffRampEdge 260203873 128894336#0 128894336#1 184742325-AddedOnRampEdge 184742325 8578556 244923470#0 244923470#1 231404787#2 231404787#3 231404787#4 154421013 422885344 154421014#0 154421014#1 247027160 231404788#1 231404788#2 231404788#3 167131057#0 167131057#1 167131058#0 167131058#1 14520294 16257975#0-AddedOnRampEdge 16257975#0 16257975#1 -438224045 -39049665#1 -39049665#0 172744182#0" />
    </vehicle>
    <vehicle depart="37.44" departLane="best" id="truck63" type="truck_truck">
        <route edges="454680854#1 211556987#0 211556987#1 211556987#2 211556987#4 211556987#6 211556987#7 211556987#8 211556987#9 211556987#10 211556987#11 211556987#12 230628534#1 230628534#2 196799732 230783567#1 230783567#2 230783567#3 186496572#0 186496572#1 186496572#2 186496572#3 186496572#4 37909831 244739181 437233641 79159521 -184765910 358278701 184765909#0 244923481 -184765907 -598422932 -37909827#3 -37909827#2 -184745785#1 -184745785#0 37909825#2 238318430#1 238318430#2 238318430#3 597462023" />
    </vehicle>
    <vehicle depart="40.41" departLane="best" id="truck68" type="truck_truck">
        <route edges="-560269842#1 560269841 172297666#2 -426507056 229480632#0 229480632#1 284347439#3 284347439#4 450878336 450878337#0 229480221#0 229480221#1 426510606 262851660#0 262851660#1 262851660#2 262851660#3 672491572 262851658 4534456 129439666 426510831 9931242#0 255838497#3 255838497#4 255838497#5 230637724#1 199890396#0 199890396#2 199890396#3 199890396#5 199890396#6 199890396#7 199890396#8 199890396#9 230628805#0 230628805#1 230628805#2 230628805#4 230628805#5 230628805#6 211556988 454576378" />
    </vehicle>
    <vehicle depart="45.76" departLane="best" id="truck77" type="truck_truck">
        <route edges="-27030143#2 -27030143#1 -27030143#0 -545465138#2 27030139#0 27030139#1 -405489977#0 -27030148#2 -27030148#1 -27030148#0 38738777#0 38738777#1 38738776#0 38738776#1 38738776#2 363528979#0 363528979#1 363528979#2 246708373 38738780 62268206 211456024 211456026#0 577924800#2 14406394#0 14406394#1 14406394#3 422062695#0 422062695#1 231715377 231715374#0 231715374#0-AddedOffRampEdge 231715374#1 231715370 231715375#0 231715375#1 38631708 72767342-AddedOnRampEdge 72767342 38631710 72614035#0 231713631#0 425929162#0 425929162#0-AddedOffRampEdge 425929162#1 425929162#2 278916131 199121003 62265344#0 62265344#1 62265345#1 586624080 133124802 133124801#0 133124801#1 454680853 211556995#0 211556995#1 424396207#0 424396207#1 424396207#2 424396207#3 27238788#0 27238788#1 27238788#2 27238788#3 -428733941 -230629149 428733944 358278706#0 358278706#1 34436958#1 34436958#2 -423496969 230629147#0 230629147#1 230629147#2 230629147#3 230629147#4 448210017 38585129#0 38585129#1" />
    </vehicle>
    <vehicle depart="48.14" departLane="best" id="truck81" type="truck_truck">
        <route edges="-430128409 130808658#3 130808660#0 130808660#1 130808660#2 130808660#3 37916629#3 128511294#2 128511294#3 128511294#4 183462529 37916618 371375600#0 371375600#1 128515111 620987193#0 620987193#1 229739161#0 229739161#0-AddedOffRampEdge 229739161#1 212723116 168667916 278920581 241926086 565519143 72921505 524255618#0 524255618#1 14409243 554707179#1 454570248 454570251 454693651 454697529#0 454697529#1 454693652 454698074 424396207#0 424396207#1 424396207#2 424396207#3 27238788#0 27238788#1 27238788#2 27238788#3 -428733941 -230629149 428733944 358278706#0 358278706#1 34436958#1 34436958#2 -423496969 230629147#0 230629147#1 230629147#2 230629147#3 230629147#4 448210017 38585129#0 38585129#1 38585129#2 448210015#0 231404625 171847845#0 171847845#1 171847845#2 171847845#3 171847845#4 76695773#0 76695773#1 76695773#2 76695773#3 76695773#4 171847502#0 171847502#0-AddedOffRampEdge 171847502#1 171847502#2 39056485 231404788#2 231404788#3 167131057#0 167131057#1 167131058#0 167131058#1 14520294 16257975#0-AddedOnRampEdge 16257975#0 16257975#1 -438224045 -39049665#1 -39049665#0 172744182#0 172744182#1 -237455934#3 -172745482#1 -39048446 39048442#2 79765660 237455916 237455926#0 -59515636 -39048489#4 -39048489#3 -39048489#2 -39048489#1 -39048488#3 -39048488#2 -39048488#1" />
    </vehicle>
    <vehicle depart="52.89" departLane="best" id="truck89" type="truck_truck">
        <route edges="19797659#0 19797659#1 19797659#2 19797659#3 19797659#4 19797659#5 19797659#6 587922690#4 35472693#0 -237455929 -237455928#1 -237455928#0 -172744182#1 -19796858#0 -76695850#3 -76695850#2 -76695850#1 -19796862#2 -19796862#1 -19796862#0 19796861#0 19796861#1 4567098 -28807664#7 -28807664#5 -28807664#3 -28807664#2 -28807664#1 -28807664#0 172297063#1 172297063#2 172297063#3 172297063#4 28807592#4 265227053#13 265227053#14 265227053#15 265227053#16 16768116 16768116-AddedOffRampEdge 628293205 154421023#0 196799726#0 196799726#1 196799727#1 369907208#1 369907208#2 369907208#3 195294104#0 195294104#1 439634848 439634849#1 439634849#2 401011170#1 369907199#2 369907199#3 184013932#0" />
    </vehicle>
    <vehicle depart="54.08" departLane="best" id="truck91" type="truck_truck">
        <route edges="-427400712#2 -427400712#1 -39120532#0 -133333367#0 39120539 39082324 241249698#0 241249698#1 241249698#2 241249698#3 241249698#4 241249698#5 241249698#6 241249698#7 241249698#8 183752945#0 183752945#1 39082314#0 39082314#1 39082314#2 39082314#4 39082304#0 39082304#1 465984315#2 465984315#3 -56394532#2 -56394532#1 -56394532#0 39117746#0 39117746#8 39117744#4 39117744#5 39117744#6 -217479452#1 -217479452#0 39117774 -38738777#2 38738776#0 38738776#1 38738776#2 363528979#0 363528979#1 363528979#2 246708373 38738780 62268206 211456024 211456026#0 577924800#2 577924800#4 28725760#0 28725760#1 28725760#2 241318604#0 241318604#1 230628539#0 230628539#1 230628539#2 231341013#0 231341013#1 231341013#2 231341013#3 230628530#0 230628530#1 230628530#2 230628530#3 230628530#4 635399925 230628530#7 230628533#0 230628533#1 230628533#2 230628533#3 230628533#4 423987651#0 423987651#1 423987651#2 423987650#0 423987650#1 230628517#0 230628517#1 230628517#2 230628517#3 230628517#4 230628517#6 230628517#7 230628534#1 230628534#2 196799732 577995980 577995980-AddedOffRampEdge 260203873 128894336#0 128894336#1 184742325-AddedOnRampEdge 184742325 8578556 244923470#0 244923470#1 231404787#2 231404787#3 231404787#4 154421013 422885344 426505707#1 426505707#2 426505710 426505706 426505711#1 426505705#1 426505715#0 426505715#1 426505717#0 426505717#1 426505709 426505718#0 426505718#1 426505718#2 426505718#3 426505724#1 14518869 449612685 -28807664#7 -28807664#5 -28807664#3 -28807664#2 -28807664#1 -28807664#0 172297063#1 172297063#2 172297063#3 172297063#4 172297063#5 172297061#3 172297061#5 172297061#6 172868947#1 -318221333 -38569951 244821391#0" />
    </vehicle>
    <vehicle depart="55.27" departLane="best" id="truck93" type="truck_truck">
        <route edges="-490216499#1 -490216498 426511880#1 424217366#6 424217260#2 424217260#3 424217260#4 -230784038#1 -230784038#0 -424211533 -230628532#1 -230628532#0 230628541#0 230628541#1 230628541#2 230628541#3 230628541#4 230628541#5 230628537#0 230628537#1 230628537#2 230628537#3 230628537#4 230628537#5 230628537#6 230628537#7 282974683#0 282974683#1 230628536#0 230628536#1 230628536#2 230628536#3 230628536#4 230628536#5 230628536#6 230628531#0 230628531#1 230628531#2 241318602#0 241318602#1 241318602#2 241318602#3 230628520#0 230628520#1 261785599#0 261785599#1 261785599#2 261785599#3 230628521#0 230628521#1 230628521#2 230628521#3 231390618#0 231390618#1 231390618#2 231390618#3 231390618#4 577924801 28725762 176499525 241249712#8 241249712#10 427400766#1 427400766#3 427400867#2 -427400930 -363528979#1 -363528979#0 -38738605#6 -38738605#5 -38738605#4 -38738605#2 -38738605#1 27030148#1 27030148#2 405489977#0 -27030139#1 -27030139#0 545465138#2" />
    </vehicle>
    <vehicle depart="57.65" departLane="best" id="truck97" type="truck_truck">
        <route edges="71958447#4 71958447#5 71958447#6 71958447#7 72767350 72767317#1 72767317#2 428721903 424210747#0 211556987#10 211556987#11 211556987#12 230628534#1 230628534#2 196799732 230783567#1 230783567#2 230783567#3 186496572#0 186496572#1 186496572#2 186496572#3 186496572#4 407769038#2 9931243 262851659 8148347 513802091 262851657#0 262851657#1 262851657#2 262851657#3 262851657#4 423517227#1 423517227#2 423517339#0 614007812 284347438#0 284347438#1 450815129#0 450815129#1 450833653#0-AddedOnRampEdge 450833653#0 450833653#1 426504423 407753019#0 407753019#1 407753019#2 221635256#0 -172297075#3 -172297075#2 -172297075#1 -172297075#0 556750747#7 556750747#8" />
    </vehicle>
    <vehicle depart="63.59" departLane="best" id="truck107" type="truck_truck">
        <route edges="71958447#1 71958447#2 27666905#2 241318602#0 241318602#1 241318602#2 241318602#3 230628520#0 230628520#1 261785599#0 261785599#1 261785599#2 261785599#3 230628521#0 230628521#1 230628521#2 230628521#3 231390618#0 231390618#1 231390618#2 231390618#3 231390618#4 577924801 28725762 176499525 231281377#0 38738786 427400671#6 27030066#0 27030066#1 27030066#2 27030066#3 27030066#4 27030066#5 27030066#6 27030066#7 27030066#8 27030066#9 211061213#0 211061213#1 211061210#0 211061210#1-AddedOnRampEdge 211061210#1 39081434#0 39081434#1 39081434#2 39081434#3 39081434#4 -128519864 79669498#0 79669498#1 128511291#0 128511291#1 128511291#2 620987193#0 620987193#1 183462527#1 183462563-AddedOnRampEdge 183462563 15260367 15260367-AddedOffRampEdge 15260356 279007737 279007738#1 183462549 674506709#0 674506709#2 167147488 237048497#0 237048497#1 37916365 279007741#0 279007741#1 410081053-AddedOnRampEdge 410081053 -37916369#3 355326291" />
    </vehicle>
    <vehicle depart="64.78" departLane="best" id="truck109" type="truck_truck">
        <route edges="-248091975 672784703#3 672784703#4 672784703#5 251712234#0 251712234#1 27029988 278992352#0 27029997#7 27029997#8 27029997#9 -545465138#2 27030139#0 27030139#1 -405489977#0 -27030148#2 -27030148#1 -27030148#0 38738777#0 38738777#1 38738776#0 38738776#1 38738776#2 363528979#0 363528979#1 363528979#2 246708373 38738780 62268206 211456024 211456026#0 577924800#2 577924800#4 8578611 427243067 426927728#0 426927728#1 426927728#2 426927728#3 426927728#5 425942465#1 426927766#1 27668372#0 27668372#1 425942461 425942463 425942460 -255818924#9 -255818924#8 -255818924#7 -255818924#6 -255818924#5 8578872#0 8578872#1 8578872#2 426696419#0 426696419#1 426696420#1 359790122#1 231355590#1 424211900#0 424211900#1 424211900#2 424211900#3 424211900#4 424211900#5 426511156 426511154#0 426511154#1 426511154#2 426511154#3 359790126" />
    </vehicle>
    <vehicle depart="67.16" departLane="best" id="truck113" type="truck_truck">
        <route edges="312295510#2 369907209#5 440227033 244923485#0 244923485#1 244923485#2 244923485#3 244923485#4 244923485#5 172297072 172297073 221635259 172297071#1 134462236#0 134462236#1 265227056#1 265227056#2 265227056#3 426505724#1 16238213#0 16238213#1 16238213#2 171846832 261539842 261539837 134462240#1 134462240#2 465742453 449611216#0 449611216#1 449611216#1-AddedOffRampEdge 39056472#0 39056472#1 475369361#0 475369361#1 247061292 171847637 171847607#1 39056475#0 39056475#1 39056475#2 39056475#3 184855988#2 39056479#0 39056479#1 39056441#0 39056441#1 39056441#2" />
    </vehicle>
    <vehicle depart="67.75" departLane="best" id="truck114" type="truck_truck">
        <route edges="-448209065#0 -427400877 -427400913 -38738777#6 -38738777#5 -38738777#4 -38738777#2 38738776#0 38738776#1 38738776#2 363528979#0 363528979#1 363528979#2 246708373 38738780 62268206 211456024 211456026#0 577924800#2 577924800#4 28725760#0 28725760#1 28725760#2 241318604#0 241318604#1 230628539#0 230628539#1 230628539#2 231341013#0 231341013#1 231341013#2 231341013#3 230628530#0 230628530#1 230628530#2 230628530#3 230628530#4 635399925 230628530#7 230628533#0 230628533#1 230628533#2 230628533#3 230628533#4 423987651#0 423987651#1 423987651#2 423987650#0 423987650#1 230628517#0 230628517#1 230628517#2 230628517#3 230628517#4 230628517#6 230628517#7 230628534#1 230628534#2 196799732 577995980 577995980-AddedOffRampEdge 260203873 128894336#0 128894336#1 184742325-AddedOnRampEdge 184742325 8578556 244923470#0 244923470#1 231404787#2 231404787#3 231404787#4 154421013 422885344 154421014#0 154421014#1 247027160 231404788#1 231404788#2 231404788#3 167131057#0 167131057#1 167131058#0 167131058#1 14520294 16257975#0-AddedOnRampEdge 16257975#0 16257975#1 -438224045 -39049665#1 -39049665#0 172744182#0 172744182#1 -237455934#3 -172745482#1 -39048446 39048442#2 79765660 237455916 237455926#0 -59515636 -39048489#4 -39048489#3 -39048489#2 172746245 -192583210#4 -450506570 -39048510#2 -39048510#0 -192583208#2 -192583208#1 192583212 192583211#0 -38570166#3 -38570166#2" />
    </vehicle>
    <vehicle depart="68.35" departLane="best" id="truck115" type="truck_truck">
        <route edges="471622252 199918918#0 199918918#1 199918918#2 199918918#3 38630328#0 38630328#1 38630639#0 38630639#1 236120862#0 236120862#1 236120862#2 236120862#3 236120860 38630648 -425923716 425923723#0 425923723#1 589515206#7 38629761 230593245 230593246 424419373#0 424419378#1 37909804#0 8307079#2 -237587401#2 424410716#0 424410716#1 230629158 -424421106 -358278702#1 -358278702#0 -79159684#1" />
    </vehicle>
    <vehicle depart="73.10" departLane="best" id="truck123" type="truck_truck">
        <route edges="-27238983#2 -27238983#1 430129437#0 128511287#1 128511287#3 37916640#1 37916642#0 37916642#1 37916642#2 37916655#0 37916655#1 157187728 183752953 183752954#0 183752954#1 183752954#2 237587397#0 237587397#1 237587397#2 237587397#4 237587397#5 237587397#6 237587397#7 245893027" />
    </vehicle>
    <vehicle depart="74.29" departLane="best" id="truck125" type="truck_truck">
        <route edges="-27586532#1 -27586532#0 369907197#6 369907197#7 369907197#8 27586525 229481575#0 229481575#1 229481575#2 487911486#1 26249930 4615022#1-AddedOnRampEdge 4615022#1 4615022#1-AddedOffRampEdge 462936246 -277478967#1 -277478970#2 -277478970#1 27587531#0 27587531#1 184013932#0 184013932#1 369907195#7 369907195#8 255792502#0 401011169#2 401011169#3 439631884 369907203#0 369907203#2 369907203#3 369907203#5 369907207#0 369907207#1 369907207#4 369907207#5 369907210#1 417991507#1 236732296#0 236732296#1 128247526#2 128247526#4 38569951 318221333 172868888#0 172868864#0 -134463317#2 39048556#0 39048556#1 39048556#2 39048561#1 39048561#2 -192583208#11 -192583208#9 -192583208#8 -192583208#7 -192583208#6 -192583208#4 -192583208#3 -192583208#2 -192583208#1 192583212 -38569959#2 -38569959#1 39048475#1 39048475#2 39014088#0 39014088#1 39014087#1 -471659281" />
    </vehicle>
    <vehicle depart="75.48" departLane="best" id="truck127" type="truck_truck">
        <route edges="457093355#0 457093355#2 457093355#3 38709148#0 38709148#1 128508563#7 128508563#8 128508563#9 230398376 17446828 237048431 235497116 128519863#0 128519863#1 235497117#0 235497122 128515118#1-AddedOnRampEdge 128515118#1 128515118#2 128515110#0 128515110#1 237169411 310454389 37916642#1 37916642#2 27030034#0 27030034#1 128511295#1 128511297#0 128511297#1 299532297#0 299532297#1 299532297#2 299532297#3 299532297#4 299532297#5 299532297#6 547177363#0 547177363#1 547177363#3 547177363#4 547305685#0 547305685#1 547305685#2 547305685#3 237455937#0 237455937#1 237455937#2 39082331#11 39082331#12 39082331#13 39082331#14 56394527 241249700#0 241249700#1 645595745 645595744#0 -39120533#2 -39120533#1 465895358" />
    </vehicle>
    <vehicle depart="77.85" departLane="best" id="truck131" type="truck_truck">
        <route edges="37916499 128508563#5 128508563#6 128508563#7 128508563#8 128508563#9 230398376 17446828 237048431 235497116 128519863#0 128519863#1 235497117#0 235497122 128515118#1-AddedOnRampEdge 128515118#1 128515118#2 128515110#0 128515110#1 237169411 310454389 37916642#1 37916642#2 27030034#0 27030034#1 128511295#1 128511297#0 128511297#1 299532297#0 299532297#1 299532297#2 299532297#3 299532297#4 299532297#5 299532297#6 547177363#0 547177363#1 547177363#3 547177363#4 547305685#0 547305685#1 547305685#2 547305685#3 237455937#0 237455937#1 237455937#2 39082331#11 39082331#12 39082331#13 39082331#14 56394527 241249700#0 241249700#1 645595745 645595744#0 645595744#2 -131628109#3 -131628119#0" />
    </vehicle>
    <vehicle depart="79.04" departLane="best" id="truck133" type="truck_truck">
        <route edges="38508531 234827302#0 38508532 369630801#1 369630802#0 369630802#1 369630802#2 456287379 72916500 -196799729#1 -196799729#0 -197054862 -425926837 -425926838 -425930849#1 -425930849#0 -231341699#1 -231341699#0 -425930850#0 -425930847 425930858 172433905 425930859 -425930861#0 578707887#2" />
    </vehicle>
    <vehicle depart="79.64" departLane="best" id="truck134" type="truck_truck">
        <route edges="-39048508#3 -39048508#2 39048488#1 39048488#2 39048488#3 39048489#1 39048489#2 -39048494#3 172747396#3 401300455#6 401300455#7 401300455#8 401300455#9 28807664#2 28807664#3 28807664#4 28807664#6 8431670#1 39049597#0 39049597#1 39049613 337854427 185627528 185627524#1 185627516 185627509#1 339106277 185627525 128027697#0 128027697#1 351751479 171848925#0 171848925#1 16765621#2 167131039#0 167131039#1 167131031 231404792#0 247061290#0 172297055 196799730#0 196799730#1 196799730#2 196799730#3 196799730#4 196799730#5 196799730#6 8578537#0 129439666 426510831 8578563#0 8578563#1 8090812 578287066#0 578287066#2 196799733#0 196799733#1 230628541#0 230628541#1 230628541#2 230628541#3 230628541#4 230628541#5 230628537#0 230628537#1 230628537#2 230628537#3 230628537#4 230628537#5 230628537#6 230628537#7 282974683#0 282974683#1 16257538#0 16257538#1 471622251 471622252 199918918#0 199918918#1 199918918#2 199918918#3 38630328#0 38630328#1 38630639#0 38630639#1 236120862#0 236120862#1 236120862#2 425929169#0 425929169#1 425929169#2 425929169#3 425929172#0 38631715#3 14406459#1 236120865 456288159 72921510 435978225 435973656 456291852 128519869 212723119#1 430125563 128515118#0 128515118#1-AddedOnRampEdge 128515118#1 435973648 435973649#1 435973649#2-AddedOnRampEdge 435973649#2 435973649#2-AddedOffRampEdge 128515120 -230398377 34436961 37916485#1 37916485#2 34436962 -128508551#1 -128508551#0 37916494#0 37916494#1 37916494#2 37916494#3 37916494#4 37916494#5 37916494#6 37916494#7 -37916531#1" />
    </vehicle>
    <vehicle depart="80.83" departLane="best" id="truck136" type="truck_truck">