<routes xmlns:xsi="http://www.w3.org/2001/XMLSchema-instance" xsi:noNamespaceSchemaLocation="http://sumo.dlr.de/xsd/routes_file.xsd">
    <vType id="truck_truck" vClass="truck">
    </vType>
    <trip depart="0.00" departLane="best" from="37538131#3" id="truck0" to="-172745429#3" type="truck_truck" />
    <trip depart="1.78" departLane="best" from="476994770" id="truck3" to="-27644487#2" type="truck_truck" />
    <trip depart="4.75" departLane="best" from="-431548666#1" id="truck8" to="369907195#2" type="truck_truck" />
    <trip depart="12.48" departLane="best" from="-27639631#0" id="truck21" to="-60685694#2" type="truck_truck" />
    <trip depart="13.07" departLane="best" from="-33968289" id="truck22" to="133125089" type="truck_truck" />
    <trip depart="17.23" departLane="best" from="27639627#0" id="truck29" to="39080244#4" type="truck_truck" />
    <trip depart="21.99" departLane="best" from="-560269842#1" id="truck37" to="-79162696" type="truck_truck" />
    <trip depart="22.58" departLane="best" from="27639664#1" id="truck38" to="128511294#0" type="truck_truck" />
    <trip depart="25.56" departLane="best" from="-37808173#2" id="truck43" to="38508529" type="truck_truck" />
    <trip depart="29.12" departLane="best" from="39014083" id="truck49" to="27733787#6" type="truck_truck" />
    <trip depart="31.50" departLane="best" from="454570246" id="truck53" to="128511297#0" type="truck_truck" />
    <trip depart="32.09" departLane="best" from="246708378" id="truck54" to="-427243088#1" type="truck_truck" />
    <trip depart="35.06" departLane="best" from="-123103598#3" id="truck59" to="172744182#0" type="truck_truck" />
    <trip depart="37.44" departLane="best" from="454680854#1" id="truck63" to="597462023" type="truck_truck" />
    <trip depart="40.41" departLane="best" from="-560269842#1" id="truck68" to="454576378" type="truck_truck" />
    <trip depart="45.76" departLane="best" from="-27030143#2" id="truck77" to="38585129#1" type="truck_truck" />
    <trip depart="48.14" departLane="best" from="-430128409" id="truck81" to="-39048488#1" type="truck_truck" />
    <trip depart="52.89" departLane="best" from="19797659#0" id="truck89" to="184013932#0" type="truck_truck" />
    <trip depart="54.08" departLane="best" from="-427400712#2" id="truck91" to="244821391#0" type="truck_truck" />
    <trip depart="55.27" departLane="best" from="-490216499#1" id="truck93" to="545465138#2" type="truck_truck" />
    <trip depart="57.65" departLane="best" from="71958447#4" id="truck97" to="556750747#8" type="truck_truck" />
    <trip depart="63.59" departLane="best" from="71958447#1" id="truck107" to="355326291" type="truck_truck" />
    <trip depart="64.78" departLane="best" from="-248091975" id="truck109" to="359790126" type="truck_truck" />
    <trip depart="67.16" departLane="best" from="312295510#2" id="truck113" to="39056441#2" type="truck_truck" />
    <trip depart="67.75" departLane="best" from="-448209065#0" id="truck114" to="-38570166#2" type="truck_truck" />
    <trip depart="68.35" departLane="best" from="471622252" id="truck115" to="-79159684#1" type="truck_truck" />
    <trip depart="73.10" departLane="best" from="-27238983#2" id="truck123" to="245893027" type="truck_truck" />
    <trip depart="74.29" departLane="best" from="-27586532#1" id="truck125" to="-471659281" type="truck_truck" />
    <trip depart="75.48" departLane="best" from="457093355#0" id="truck127" to="465895358" type="truck_truck" />
    <trip depart="77.85" departLane="best" from="37916499" id="truck131" to="-131628119#0" type="truck_truck" />
    <trip depart="79.04" departLane="best" from="38508531" id="truck133" to="578707887#2" type="truck_truck" />
    <trip depart="79.64" departLane="best" from="-39048508#3" id="truck134" to="-37916531#1" type="truck_truck" />
    <trip depart="80.83" departLane="best" from="-612083734" id="truck136" to="37808165#2" type="truck_truck" />
    <trip depart="82.61" departLane="best" from="241318602#3" id="truck139" to="504626071" type="truck_truck" />
    <trip depart="85.58" departLane="best" from="418365018#1" id="truck144" to="290026189#2" type="truck_truck" />
    <trip depart="90.93" departLane="best" from="425926846#0" id="truck153" to="46927935#0" type="truck_truck" />
    <trip depart="91.52" departLane="best" from="202867531#0" id="truck154" to="37916557#2" type="truck_truck" />
    <trip depart="92.12" departLane="best" from="-39081428#1" id="truck155" to="56394526#3" type="truck_truck" />
    <trip depart="93.31" departLane="best" from="426927713#0" id="truck157" to="46892380" type="truck_truck" />
    <trip depart="95.68" departLane="best" from="426927713#0" id="truck161" to="128519868" type="truck_truck" />
    <trip depart="96.87" departLane="best" from="450833653#0" id="truck163" to="447117759#2" type="truck_truck" />
    <trip depart="97.47" departLane="best" from="-431552168" id="truck164" to="430126278" type="truck_truck" />
    <trip depart="98.66" departLane="best" from="426506695#2" id="truck166" to="-56394532#1" type="truck_truck" />
    <trip depart="99.25" departLane="best" from="-183752965" id="truck167" to="-430126275" type="truck_truck" />
    <trip depart="99.84" departLane="best" from="141294961#2" id="truck168" to="449612384" type="truck_truck" />
    <trip depart="101.03" departLane="best" from="37909812#0" id="truck170" to="230784033#2" type="truck_truck" />
    <trip depart="104.00" departLane="best" from="-377396455#1" id="truck175" to="237455940#1" type="truck_truck" />
    <trip depart="108.76" departLane="best" from="172433904#1" id="truck183" to="-27030027#3" type="truck_truck" />
    <trip depart="109.95" departLane="best" from="131655865#1" id="truck185" to="437180473#0" type="truck_truck" />
    <trip depart="110.54" departLane="best" from="39081859#0" id="truck186" to="16257538#1" type="truck_truck" />
    <trip depart="111.73" departLane="best" from="19797658#3" id="truck188" to="154421037" type="truck_truck" />
    <trip depart="113.51" departLane="best" from="493367006#2" id="truck191" to="37916463" type="truck_truck" />
    <trip depart="114.70" departLane="best" from="-123103598#2" id="truck193" to="142906169#1" type="truck_truck" />
    <trip depart="115.30" departLane="best" from="230628518" id="truck194" to="358278701" type="truck_truck" />
    <trip depart="116.48" departLane="best" from="230784541" id="truck196" to="-472258016" type="truck_truck" />
    <trip depart="123.02" departLane="best" from="-427400930" id="truck207" to="39117743#1" type="truck_truck" />
    <trip depart="124.21" departLane="best" from="37916541" id="truck209" to="-129439669" type="truck_truck" />
    <trip depart="125.40" departLane="best" from="-373580561#0" id="truck211" to="236765475#2" type="truck_truck" />
    <trip depart="125.99" departLane="best" from="-425942443#1" id="truck212" to="645595744#2" type="truck_truck" />
    <trip depart="126.59" departLane="best" from="25953774#2" id="truck213" to="-237455923#0" type="truck_truck" />
    <trip depart="127.18" departLane="best" from="-490216495#1" id="truck214" to="437181266#1" type="truck_truck" />
    <trip depart="128.37" departLane="best" from="38585150" id="truck216" to="8547744#1" type="truck_truck" />
    <trip depart="129.56" departLane="best" from="474015557" id="truck218" to="37916388#0" type="truck_truck" />
    <trip depart="130.75" departLane="best" from="427400766#1" id="truck220" to="28788350#0" type="truck_truck" />
    <trip depart="132.53" departLane="best" from="-477587486#0" id="truck223" to="38631715#0" type="truck_truck" />
    <trip depart="133.12" departLane="best" from="424630792" id="truck224" to="27639662" type="truck_truck" />
    <trip depart="134.91" departLane="best" from="-598422931" id="truck227" to="172297075#4" type="truck_truck" />
    <trip depart="137.28" departLane="best" from="204071640" id="truck231" to="278992350" type="truck_truck" />
    <trip depart="137.88" departLane="best" from="212554510#1" id="truck232" to="-448209065#2" type="truck_truck" />
    <trip depart="139.07" departLane="best" from="280118522#3" id="truck234" to="39117733#1" type="truck_truck" />
    <trip depart="139.66" departLane="best" from="437192721#0" id="truck235" to="426505733#2" type="truck_truck" />
    <trip depart="140.85" departLane="best" from="436333202" id="truck237" to="627182616#7" type="truck_truck" />
    <trip depart="142.04" departLane="best" from="27587525#1" id="truck239" to="37538257" type="truck_truck" />
    <trip depart="143.23" departLane="best" from="230628541#0" id="truck241" to="-184767079" type="truck_truck" />
    <trip depart="143.82" departLane="best" from="15260247#1" id="truck242" to="39077808" type="truck_truck" />
    <trip depart="144.42" departLane="best" from="199121003" id="truck243" to="-424630866#0" type="truck_truck" />
    <trip depart="147.39" departLane="best" from="-39048535#0" id="truck248" to="246848875" type="truck_truck" />
    <trip depart="147.98" departLane="best" from="-238318428#1" id="truck249" to="228351158#0" type="truck_truck" />
    <trip depart="150.95" departLane="best" from="-172297075#5" id="truck254" to="277480298" type="truck_truck" />
    <trip depart="152.74" departLane="best" from="627182616#0" id="truck257" to="-431548664#0" type="truck_truck" />
    <trip depart="156.30" departLane="best" from="424136014#0" id="truck263" to="-37916466" type="truck_truck" />
    <trip depart="158.68" departLane="best" from="661786912" id="truck267" to="230629143" type="truck_truck" />
    <trip depart="159.27" departLane="best" from="39080241" id="truck268" to="-27238962#1" type="truck_truck" />
    <trip depart="159.87" departLane="best" from="39048451#1" id="truck269" to="38508523" type="truck_truck" />
    <trip depart="160.46" departLane="best" from="-35472704" id="truck270" to="426511888#2" type="truck_truck" />
    <trip depart="162.25" departLane="best" from="425929198" id="truck273" to="185783795#3" type="truck_truck" />
    <trip depart="165.22" departLane="best" from="37253817" id="truck278" to="430128409" type="truck_truck" />
    <trip depart="165.81" departLane="best" from="39053438#0" id="truck279" to="237470831#0" type="truck_truck" />
    <trip depart="166.41" departLane="best" from="401300455#2" id="truck280" to="679174374" type="truck_truck" />
    <trip depart="168.78" departLane="best" from="-587918116#1" id="truck284" to="438470923" type="truck_truck" />
    <trip depart="169.97" departLane="best" from="4615022#1" id="truck286" to="-75479791" type="truck_truck" />
    <trip depart="171.75" departLane="best" from="436325257" id="truck289" to="-427400670#0" type="truck_truck" />
    <trip depart="172.94" departLane="best" from="157188563#8" id="truck291" to="465984314" type="truck_truck" />
    <trip depart="175.32" departLane="best" from="241318602#3" id="truck295" to="425934934#0" type="truck_truck" />
    <trip depart="175.91" departLane="best" from="39048451#1" id="truck296" to="38841784#0" type="truck_truck" />
    <trip depart="176.51" departLane="best" from="244923471#1" id="truck297" to="427243062#4" type="truck_truck" />
    <trip depart="177.10" departLane="best" from="-28807488#0" id="truck298" to="-517454500" type="truck_truck" />
    <trip depart="177.70" departLane="best" from="39048475#1" id="truck299" to="16653270#3" type="truck_truck" />
    <trip depart="178.29" departLane="best" from="278992351#2" id="truck300" to="255845157#0" type="truck_truck" />
    <trip depart="181.86" departLane="best" from="27030139#0" id="truck306" to="426505699" type="truck_truck" />
    <trip depart="183.05" departLane="best" from="239019893#2" id="truck308" to="424211755#3" type="truck_truck" />
    <trip depart="185.42" departLane="best" from="-426507060#2" id="truck312" to="-142906165" type="truck_truck" />
    <trip depart="186.02" departLane="best" from="27030106" id="truck313" to="131655877" type="truck_truck" />
    <trip depart="186.61" departLane="best" from="75329379" id="truck314" to="301151224" type="truck_truck" />
    <trip depart="187.80" departLane="best" from="448210019#3" id="truck316" to="27030066#5" type="truck_truck" />
    <trip depart="190.18" departLane="best" from="59515645#2" id="truck320" to="262460754#2" type="truck_truck" />
    <trip depart="191.37" departLane="best" from="-27587528#1" id="truck322" to="38570166#2" type="truck_truck" />
    <trip depart="193.15" departLane="best" from="8579208#1" id="truck325" to="-38508521" type="truck_truck" />
    <trip depart="196.72" departLane="best" from="410081053-AddedOnRampEdge" id="truck331" to="600788074" type="truck_truck" />
    <trip depart="197.31" departLane="best" from="-430127813#0" id="truck332" to="-465895356#0" type="truck_truck" />
    <trip depart="200.28" departLane="best" from="-438470924" id="truck337" to="405498518#0" type="truck_truck" />
    <trip depart="203.25" departLane="best" from="23013102#1" id="truck342" to="279007742#2" type="truck_truck" />
    <trip depart="205.04" departLane="best" from="-418365015" id="truck345" to="16765274#0" type="truck_truck" />
    <trip depart="205.63" departLane="best" from="424210746" id="truck346" to="333520062#7" type="truck_truck" />
    <trip depart="206.82" departLane="best" from="39048410#0" id="truck348" to="39120532#1" type="truck_truck" />
    <trip depart="208.01" departLane="best" from="244936602" id="truck350" to="-27639585#5" type="truck_truck" />
    <trip depart="209.20" departLane="best" from="134362567#0" id="truck352" to="-8579406" type="truck_truck" />
    <trip depart="209.79" departLane="best" from="-278916129#3" id="truck353" to="661786920" type="truck_truck" />
    <trip depart="212.17" departLane="best" from="-22999717" id="truck357" to="425930855" type="truck_truck" />
    <trip depart="213.36" departLane="best" from="284347441#2" id="truck359" to="38630645" type="truck_truck" />
    <trip depart="214.54" departLane="best" from="16652867#1" id="truck361" to="183489030#1" type="truck_truck" />
    <trip depart="215.14" departLane="best" from="38630642#0" id="truck362" to="447117757#0" type="truck_truck" />
    <trip depart="215.73" departLane="best" from="142906168" id="truck363" to="39082331#11" type="truck_truck" />
    <trip depart="217.52" departLane="best" from="231355574#1" id="truck366" to="171847846#3" type="truck_truck" />
    <trip depart="218.11" departLane="best" from="134364076#1" id="truck367" to="71958447#1" type="truck_truck" />
    <trip depart="218.71" departLane="best" from="198727279#3" id="truck368" to="27639613#4" type="truck_truck" />
    <trip depart="219.30" departLane="best" from="8547794#2" id="truck369" to="39048457#0" type="truck_truck" />
    <trip depart="219.89" departLane="best" from="27474566#0" id="truck370" to="231355574#1" type="truck_truck" />
    <trip depart="221.68" departLane="best" from="424396207#0" id="truck373" to="-438470510#0" type="truck_truck" />
    <trip depart="223.46" departLane="best" from="337865808#1" id="truck376" to="-672784703#3" type="truck_truck" />
    <trip depart="225.24" departLane="best" from="8579140#7" id="truck379" to="51835047" type="truck_truck" />
    <trip depart="227.03" departLane="best" from="39081428#0" id="truck382" to="27639570#0" type="truck_truck" />
    <trip depart="227.62" departLane="best" from="-626721430#0" id="truck383" to="431548666#1" type="truck_truck" />
    <trip depart="230.59" departLane="best" from="-672784702#3" id="truck388" to="427018862#4" type="truck_truck" />
    <trip depart="231.19" departLane="best" from="211556997#0" id="truck389" to="576932607#1" type="truck_truck" />
    <trip depart="232.37" departLane="best" from="-77002176" id="truck391" to="16238205#0" type="truck_truck" />
    <trip depart="232.97" departLane="best" from="28807588#5" id="truck392" to="86256168" type="truck_truck" />
    <trip depart="234.16" departLane="best" from="27238983#2" id="truck394" to="185627516" type="truck_truck" />
    <trip depart="234.75" departLane="best" from="27639585#5" id="truck395" to="278992352#2" type="truck_truck" />
    <trip depart="235.94" departLane="best" from="-427400671#4" id="truck397" to="39117749" type="truck_truck" />
    <trip depart="238.32" departLane="best" from="426927728#3" id="truck401" to="230395380#1" type="truck_truck" />
    <trip depart="243.07" departLane="best" from="154421023#0" id="truck409" to="39082314#2" type="truck_truck" />
    <trip depart="244.26" departLane="best" from="184006418#0" id="truck411" to="171848999#0" type="truck_truck" />
    <trip depart="244.85" departLane="best" from="39081854" id="truck412" to="425942447#1" type="truck_truck" />
    <trip depart="245.45" departLane="best" from="450833653#1" id="truck413" to="-19797659#4" type="truck_truck" />
    <trip depart="251.99" departLane="best" from="-424630814#2" id="truck424" to="-27639576#0" type="truck_truck" />
    <trip depart="255.55" departLane="best" from="490216505" id="truck430" to="39056468#1" type="truck_truck" />
    <trip depart="256.15" departLane="best" from="-39082303#0" id="truck431" to="239019901#0" type="truck_truck" />
    <trip depart="256.74" departLane="best" from="16326434#2" id="truck432" to="369631339" type="truck_truck" />
    <trip depart="257.93" departLane="best" from="-490216500" id="truck434" to="436488788" type="truck_truck" />
    <trip depart="258.52" departLane="best" from="-430119365" id="truck435" to="230395373#3" type="truck_truck" />
    <trip depart="259.12" departLane="best" from="238318429#0" id="truck436" to="-649260345" type="truck_truck" />
    <trip depart="259.71" departLane="best" from="27668192#6" id="truck437" to="33968269" type="truck_truck" />
    <trip depart="260.90" departLane="best" from="78171846" id="truck439" to="39048475#0" type="truck_truck" />
    <trip depart="262.68" departLane="best" from="-237470811#1" id="truck442" to="37909818#0" type="truck_truck" />
    <trip depart="264.47" departLane="best" from="334003225#0" id="truck445" to="192583210#1" type="truck_truck" />
    <trip depart="265.06" departLane="best" from="373576675" id="truck446" to="37916601" type="truck_truck" />
    <trip depart="266.25" departLane="best" from="37918160" id="truck448" to="435973651#1-AddedOffRampEdge" type="truck_truck" />
    <trip depart="270.41" departLane="best" from="27333547#1" id="truck455" to="72614032#1" type="truck_truck" />
    <trip depart="271.00" departLane="best" from="27030031#3" id="truck456" to="51835049#2" type="truck_truck" />
    <trip depart="271.60" departLane="best" from="427400761" id="truck457" to="127682584" type="truck_truck" />
    <trip depart="275.16" departLane="best" from="39082331#13" id="truck463" to="78879544#0" type="truck_truck" />
    <trip depart="275.76" departLane="best" from="68280085#3" id="truck464" to="427400867#2" type="truck_truck" />
    <trip depart="276.95" departLane="best" from="-16326412#2" id="truck466" to="27733787#2" type="truck_truck" />
    <trip depart="279.32" departLane="best" from="-377396455#1" id="truck470" to="-622465138" type="truck_truck" />
    <trip depart="282.30" departLane="best" from="128511297#0" id="truck475" to="231350458#2" type="truck_truck" />
    <trip depart="284.67" departLane="best" from="-39048535#0" id="truck479" to="244936614#5" type="truck_truck" />
    <trip depart="285.27" departLane="best" from="38630644" id="truck480" to="425456015" type="truck_truck" />
    <trip depart="285.86" departLane="best" from="614007812" id="truck481" to="231715374#0-AddedOffRampEdge" type="truck_truck" />
    <trip depart="286.46" departLane="best" from="418365026#4" id="truck482" to="-39117733#0" type="truck_truck" />
    <trip depart="288.83" departLane="best" from="172868867#4" id="truck486" to="241249683" type="truck_truck" />
    <trip depart="289.43" departLane="best" from="627182616#8" id="truck487" to="439894866" type="truck_truck" />
    <trip depart="291.21" departLane="best" from="171849006" id="truck490" to="230783567#1" type="truck_truck" />
    <trip depart="292.40" departLane="best" from="430129492" id="truck492" to="244936647#1" type="truck_truck" />
    <trip depart="295.37" departLane="best" from="-27030107" id="truck497" to="426505733#0" type="truck_truck" />
    <trip depart="300.72" departLane="best" from="-450506569" id="truck506" to="172728802#1" type="truck_truck" />
    <trip depart="302.50" departLane="best" from="423734890#0" id="truck509" to="25953774#3" type="truck_truck" />
    <trip depart="303.69" departLane="best" from="-37808165#1" id="truck511" to="27586532#1" type="truck_truck" />
    <trip depart="304.29" departLane="best" from="60685694#1" id="truck512" to="-22999960#0" type="truck_truck" />
    <trip depart="305.47" departLane="best" from="262851665#0" id="truck514" to="245893027" type="truck_truck" />
    <trip depart="306.07" departLane="best" from="679174374" id="truck515" to="-248091976" type="truck_truck" />
    <trip depart="306.66" departLane="best" from="237470831#1" id="truck516" to="230784544#1" type="truck_truck" />
    <trip depart="307.85" departLane="best" from="517410414#0" id="truck518" to="-27030125#0" type="truck_truck" />
    <trip depart="309.63" departLane="best" from="369907216#1" id="truck521" to="28807588#1" type="truck_truck" />
    <trip depart="313.79" departLane="best" from="231350474#1" id="truck528" to="-577923696#1" type="truck_truck" />
    <trip depart="316.17" departLane="best" from="183489030#1" id="truck532" to="-39081862#0" type="truck_truck" />
    <trip depart="320.33" departLane="best" from="171847101#1" id="truck539" to="39049649#1" type="truck_truck" />
    <trip depart="320.93" departLane="best" from="424210759" id="truck540" to="451481106#0" type="truck_truck" />
    <trip depart="324.49" departLane="best" from="172746245" id="truck546" to="426505706" type="truck_truck" />
    <trip depart="325.09" departLane="best" from="27691796#4" id="truck547" to="428683763" type="truck_truck" />
    <trip depart="325.68" departLane="best" from="430127944" id="truck548" to="72921505" type="truck_truck" />
    <trip depart="326.27" departLane="best" from="427243023#1" id="truck549" to="37916421#4" type="truck_truck" />
    <trip depart="327.46" departLane="best" from="565914241#0" id="truck551" to="430128411" type="truck_truck" />
    <trip depart="328.06" departLane="best" from="-577926287#1" id="truck552" to="-427243117#0" type="truck_truck" />
    <trip depart="328.65" departLane="best" from="39053408#1" id="truck553" to="16767770#2" type="truck_truck" />
    <trip depart="329.25" departLane="best" from="449611526#1" id="truck554" to="330594187#1" type="truck_truck" />
    <trip depart="334.00" departLane="best" from="-39081888#0" id="truck562" to="37916511#0" type="truck_truck" />
    <trip depart="336.38" departLane="best" from="424211905#5" id="truck566" to="-37916456#2" type="truck_truck" />
    <trip depart="337.57" departLane="best" from="38738776#1" id="truck568" to="27030008#2" type="truck_truck" />
    <trip depart="339.94" departLane="best" from="-430128166" id="truck572" to="-39049668" type="truck_truck" />
    <trip depart="341.13" departLane="best" from="-133125062#0" id="truck574" to="425692607" type="truck_truck" />
    <trip depart="341.73" departLane="best" from="-425934938" id="truck575" to="229479996" type="truck_truck" />
    <trip depart="342.32" departLane="best" from="39053416#2" id="truck576" to="27474546#4" type="truck_truck" />
    <trip depart="342.92" departLane="best" from="427400929#1" id="truck577" to="428102023#0" type="truck_truck" />
    <trip depart="343.51" departLane="best" from="-27238962#1" id="truck578" to="448210015#0" type="truck_truck" />
    <trip depart="346.48" departLane="best" from="-37916533#2" id="truck583" to="-171848165#0" type="truck_truck" />
    <trip depart="347.08" departLane="best" from="134462238#0" id="truck584" to="427400738#0" type="truck_truck" />
    <trip depart="349.45" departLane="best" from="28807664#3" id="truck588" to="27644486#0" type="truck_truck" />
    <trip depart="352.42" departLane="best" from="504626071" id="truck593" to="186496570#0" type="truck_truck" />
    <trip depart="353.61" departLane="best" from="427018779#3" id="truck595" to="-645595744#0" type="truck_truck" />
    <trip depart="354.21" departLane="best" from="-39056453#0" id="truck596" to="-430128415#0" type="truck_truck" />
    <trip depart="355.40" departLane="best" from="37916533#0" id="truck598" to="-427243021" type="truck_truck" />
    <trip depart="356.58" departLane="best" from="424211905#0" id="truck600" to="425942451#2" type="truck_truck" />
    <trip depart="357.77" departLane="best" from="27644487#0" id="truck602" to="38630650#2" type="truck_truck" />
    <trip depart="358.37" departLane="best" from="369637283" id="truck603" to="449612098#2" type="truck_truck" />
    <trip depart="360.74" departLane="best" from="-246848881" id="truck607" to="27587531#1" type="truck_truck" />
    <trip depart="362.53" departLane="best" from="436647794" id="truck610" to="37916456#2" type="truck_truck" />
    <trip depart="364.31" departLane="best" from="487613356#1" id="truck613" to="244923471#1" type="truck_truck" />
    <trip depart="366.09" departLane="best" from="-39077901#3" id="truck616" to="-251629009#1" type="truck_truck" />
    <trip depart="370.85" departLane="best" from="154421014#0" id="truck624" to="370514753#0" type="truck_truck" />
    <trip depart="371.44" departLane="best" from="426505695#0" id="truck625" to="390083547" type="truck_truck" />
    <trip depart="372.04" departLane="best" from="38738776#0" id="truck626" to="134463317#2" type="truck_truck" />
    <trip depart="373.22" departLane="best" from="504791813#1" id="truck628" to="454670894" type="truck_truck" />
    <trip depart="373.82" departLane="best" from="-39053412#1" id="truck629" to="186496572#2" type="truck_truck" />
    <trip depart="375.60" departLane="best" from="587922690#20" id="truck632" to="16973701" type="truck_truck" />
    <trip depart="377.39" departLane="best" from="427400679" id="truck635" to="424630819#3" type="truck_truck" />
    <trip depart="377.98" departLane="best" from="39046111#1" id="truck636" to="27660267#1" type="truck_truck" />
    <trip depart="379.76" departLane="best" from="-426602671#0" id="truck639" to="-477587486#1" type="truck_truck" />
    <trip depart="380.36" departLane="best" from="622465138" id="truck640" to="27030006" type="truck_truck" />
    <trip depart="380.95" departLane="best" from="-436333210" id="truck641" to="-39051473#2" type="truck_truck" />
    <trip depart="382.73" departLane="best" from="428734636" id="truck644" to="46927928#1" type="truck_truck" />
    <trip depart="383.92" departLane="best" from="424630809#2" id="truck646" to="-39048456" type="truck_truck" />
    <trip depart="384.52" departLane="best" from="183752940#2" id="truck647" to="-423496969" type="truck_truck" />
    <trip depart="385.11" departLane="best" from="427400793#1" id="truck648" to="426511385" type="truck_truck" />
    <trip depart="388.68" departLane="best" from="27030103" id="truck654" to="16973673" type="truck_truck" />
    <trip depart="389.87" departLane="best" from="428734636" id="truck656" to="211060857#1-AddedOnRampEdge" type="truck_truck" />
    <trip depart="390.46" departLane="best" from="621615816#0" id="truck657" to="8103471#0" type="truck_truck" />
    <trip depart="392.24" departLane="best" from="679196742#1" id="truck660" to="430126278" type="truck_truck" />
    <trip depart="393.43" departLane="best" from="-490216500" id="truck662" to="38738610#1" type="truck_truck" />
    <trip depart="394.03" departLane="best" from="4534444#0" id="truck663" to="310454389" type="truck_truck" />
    <trip depart="397.00" departLane="best" from="230628808#0" id="truck668" to="596595379" type="truck_truck" />
    <trip depart="398.19" departLane="best" from="167147487" id="truck670" to="-172868864#1" type="truck_truck" />
    <trip depart="398.78" departLane="best" from="-244936626#1" id="truck671" to="27570521#1" type="truck_truck" />
    <trip depart="399.37" departLane="best" from="-448209065#3" id="truck672" to="8579215" type="truck_truck" />
    <trip depart="399.97" departLane="best" from="183489035" id="truck673" to="-184044492" type="truck_truck" />
    <trip depart="401.16" departLane="best" from="37916421#5" id="truck675" to="427243032#2" type="truck_truck" />
    <trip depart="401.75" departLane="best" from="-39049641#0" id="truck676" to="142906169#1" type="truck_truck" />
    <trip depart="403.53" departLane="best" from="-27639627#3" id="truck679" to="125450909#2" type="truck_truck" />
    <trip depart="405.32" departLane="best" from="-37909828" id="truck682" to="14406786#0" type="truck_truck" />
    <trip depart="405.91" departLane="best" from="128511291#1" id="truck683" to="-233692924" type="truck_truck" />
    <trip depart="407.10" departLane="best" from="231355586#2" id="truck685" to="-37909827#3" type="truck_truck" />
    <trip depart="407.69" departLane="best" from="504331803#1" id="truck686" to="369907215" type="truck_truck" />
    <trip depart="409.48" departLane="best" from="230628517#0" id="truck689" to="37916452#3" type="truck_truck" />
    <trip depart="410.07" departLane="best" from="-454683135" id="truck690" to="231390618#4" type="truck_truck" />
    <trip depart="414.23" departLane="best" from="-504630216" id="truck697" to="-14521675#2" type="truck_truck" />
    <trip depart="414.83" departLane="best" from="426504884#1" id="truck698" to="185627509#1" type="truck_truck" />
    <trip depart="417.80" departLane="best" from="-425930849#1" id="truck703" to="426696420#1" type="truck_truck" />
    <trip depart="419.58" departLane="best" from="-27030002#1" id="truck706" to="426603437#8" type="truck_truck" />
    <trip depart="422.55" departLane="best" from="424211753#2" id="truck711" to="-430119210" type="truck_truck" />
    <trip depart="424.34" departLane="best" from="-38738774#3" id="truck714" to="211060895" type="truck_truck" />