<routes xmlns:xsi="http://www.w3.org/2001/XMLSchema-instance" xsi:noNamespaceSchemaLocation="http://sumo.dlr.de/xsd/routes_file.xsd">
    <vType id="moto_motorcycle" vClass="motorcycle">
    </vType>
    <trip depart="0.85" departLane="best" from="-431546514" id="moto2" to="141294961#4" type="moto_motorcycle" />
    <trip depart="1.27" departLane="best" from="-424630814#2" id="moto3" to="424630809#1" type="moto_motorcycle" />
    <trip depart="1.70" departLane="best" from="184742325-AddedOnRampEdge" id="moto4" to="-490216499#0" type="moto_motorcycle" />
    <trip depart="2.97" departLane="best" from="-37909859#0" id="moto7" to="237587407#5" type="moto_motorcycle" />
    <trip depart="3.82" departLane="best" from="229480982#4" id="moto9" to="27644477#2" type="moto_motorcycle" />
    <trip depart="5.94" departLane="best" from="211455039" id="moto14" to="-131655864" type="moto_motorcycle" />
    <trip depart="6.37" departLane="best" from="445750758#0" id="moto15" to="73532302#3" type="moto_motorcycle" />
    <trip depart="6.79" departLane="best" from="-430128410" id="moto16" to="430127946" type="moto_motorcycle" />
    <trip depart="9.34" departLane="best" from="37916357#1" id="moto22" to="252790570#4" type="moto_motorcycle" />
    <trip depart="10.19" departLane="best" from="426506692#0" id="moto24" to="-426505719#0" type="moto_motorcycle" />
    <trip depart="11.04" departLane="best" from="423987908#2" id="moto26" to="426696431#3" type="moto_motorcycle" />
    <trip depart="11.46" departLane="best" from="131655875#1" id="moto27" to="39081428#1" type="moto_motorcycle" />
    <trip depart="11.89" departLane="best" from="-192583208#3" id="moto28" to="39014084#1" type="moto_motorcycle" />
    <trip depart="12.74" departLane="best" from="9931242#0" id="moto30" to="186496570#0" type="moto_motorcycle" />
    <trip depart="13.58" departLane="best" from="-430127811" id="moto32" to="430115790" type="moto_motorcycle" />
    <trip depart="14.01" departLane="best" from="133333369#0" id="moto33" to="465984315#2" type="moto_motorcycle" />
    <trip depart="14.86" departLane="best" from="27668372#0" id="moto35" to="261785599#1" type="moto_motorcycle" />
    <trip depart="16.13" departLane="best" from="59515637#0" id="moto38" to="265227053#7" type="moto_motorcycle" />
    <trip depart="16.56" departLane="best" from="-27611587" id="moto39" to="38631693#0" type="moto_motorcycle" />
    <trip depart="16.98" departLane="best" from="252790570#0" id="moto40" to="244936623" type="moto_motorcycle" />
    <trip depart="18.68" departLane="best" from="132236347#4" id="moto44" to="39120533#1" type="moto_motorcycle" />
    <trip depart="19.10" departLane="best" from="-635718958#1" id="moto45" to="212554514#0" type="moto_motorcycle" />
    <trip depart="19.53" departLane="best" from="78171837#1" id="moto46" to="39049641#0" type="moto_motorcycle" />
    <trip depart="20.38" departLane="best" from="-430128408" id="moto48" to="-251629009#1" type="moto_motorcycle" />
    <trip depart="21.23" departLane="best" from="38508529" id="moto50" to="425926581#0" type="moto_motorcycle" />
    <trip depart="21.65" departLane="best" from="627182616#10" id="moto51" to="439894871" type="moto_motorcycle" />
    <trip depart="22.07" departLane="best" from="430128415#0" id="moto52" to="245893027" type="moto_motorcycle" />
    <trip depart="22.50" departLane="best" from="-128511299" id="moto53" to="447117762#2" type="moto_motorcycle" />
    <trip depart="22.92" departLane="best" from="-39053434#0" id="moto54" to="-39046625#7" type="moto_motorcycle" />
    <trip depart="23.35" departLane="best" from="235497120" id="moto55" to="231281381#2" type="moto_motorcycle" />
    <trip depart="25.05" departLane="best" from="430126619#0" id="moto59" to="-672784703#0" type="moto_motorcycle" />
    <trip depart="25.47" departLane="best" from="39082313#3" id="moto60" to="430128044" type="moto_motorcycle" />
    <trip depart="26.32" departLane="best" from="132236347#2" id="moto62" to="377396455#1" type="moto_motorcycle" />
    <trip depart="27.59" departLane="best" from="430114472#0" id="moto65" to="211060857#0" type="moto_motorcycle" />
    <trip depart="28.87" departLane="best" from="430114472#0" id="moto68" to="310454394" type="moto_motorcycle" />
    <trip depart="29.72" departLane="best" from="424630848" id="moto70" to="425457913#1" type="moto_motorcycle" />
    <trip depart="30.14" departLane="best" from="211061213#0" id="moto71" to="39117744#5" type="moto_motorcycle" />
    <trip depart="30.56" departLane="best" from="16651445#1" id="moto72" to="22999960#1" type="moto_motorcycle" />
    <trip depart="30.99" departLane="best" from="141113572#0" id="moto73" to="-255818924#16" type="moto_motorcycle" />
    <trip depart="32.26" departLane="best" from="38631710" id="moto76" to="-38508521" type="moto_motorcycle" />
    <trip depart="32.69" departLane="best" from="587922690#20" id="moto77" to="426505724#1" type="moto_motorcycle" />
    <trip depart="33.11" departLane="best" from="39014083" id="moto78" to="-172747396#1" type="moto_motorcycle" />
    <trip depart="33.54" departLane="best" from="38631715#3" id="moto79" to="-191510467" type="moto_motorcycle" />
    <trip depart="34.38" departLane="best" from="-60685694#0" id="moto81" to="134463317#1" type="moto_motorcycle" />
    <trip depart="35.23" departLane="best" from="424630828#0" id="moto83" to="-128511288#1" type="moto_motorcycle" />
    <trip depart="35.66" departLane="best" from="-37538137#1" id="moto84" to="79765662" type="moto_motorcycle" />
    <trip depart="36.08" departLane="best" from="-27030022" id="moto85" to="8579186#1" type="moto_motorcycle" />
    <trip depart="36.51" departLane="best" from="8579169#2" id="moto86" to="22999717" type="moto_motorcycle" />
    <trip depart="37.36" departLane="best" from="-430128411" id="moto88" to="-128508551#1" type="moto_motorcycle" />
    <trip depart="37.78" departLane="best" from="-172868864#0" id="moto89" to="154421036" type="moto_motorcycle" />
    <trip depart="38.63" departLane="best" from="171848999#1" id="moto91" to="426505718#2" type="moto_motorcycle" />
    <trip depart="39.90" departLane="best" from="235497120" id="moto94" to="454557950" type="moto_motorcycle" />
    <trip depart="41.60" departLane="best" from="-248091972" id="moto98" to="-131655864" type="moto_motorcycle" />
    <trip depart="42.45" departLane="best" from="75329379" id="moto100" to="-237470811#3" type="moto_motorcycle" />
    <trip depart="42.88" departLane="best" from="-27667429#1" id="moto101" to="384104721" type="moto_motorcycle" />
    <trip depart="43.30" departLane="best" from="426510607" id="moto102" to="424210758" type="moto_motorcycle" />
    <trip depart="45.42" departLane="best" from="184745785#1" id="moto107" to="426505695#2" type="moto_motorcycle" />
    <trip depart="46.70" departLane="best" from="229480983#1" id="moto110" to="401760472" type="moto_motorcycle" />
    <trip depart="47.12" departLane="best" from="-27030005#1" id="moto111" to="-339103685#0" type="moto_motorcycle" />
    <trip depart="48.39" departLane="best" from="39046429" id="moto114" to="39046000" type="moto_motorcycle" />
    <trip depart="48.82" departLane="best" from="407757111#4" id="moto115" to="426603437#8" type="moto_motorcycle" />
    <trip depart="50.09" departLane="best" from="427018862#2" id="moto118" to="239019906" type="moto_motorcycle" />
    <trip depart="50.94" departLane="best" from="-503239707" id="moto120" to="231404620#3" type="moto_motorcycle" />
    <trip depart="51.79" departLane="best" from="-430129437#1" id="moto122" to="39081434#1" type="moto_motorcycle" />
    <trip depart="52.21" departLane="best" from="-27667565" id="moto123" to="-337865808#1" type="moto_motorcycle" />
    <trip depart="52.64" departLane="best" from="127683181" id="moto124" to="-39053414" type="moto_motorcycle" />
    <trip depart="53.06" departLane="best" from="423496969" id="moto125" to="152424414#3" type="moto_motorcycle" />
    <trip depart="53.91" departLane="best" from="-430121224" id="moto127" to="430126367" type="moto_motorcycle" />
    <trip depart="54.34" departLane="best" from="430128040" id="moto128" to="-244936681" type="moto_motorcycle" />
    <trip depart="54.76" departLane="best" from="27660275#2" id="moto129" to="-27474550" type="moto_motorcycle" />
    <trip depart="55.19" departLane="best" from="39081849#2" id="moto130" to="-547305685#3" type="moto_motorcycle" />
    <trip depart="55.61" departLane="best" from="19796852#0" id="moto131" to="424217266#4" type="moto_motorcycle" />
    <trip depart="56.46" departLane="best" from="37916388#2" id="moto133" to="128511291#0" type="moto_motorcycle" />
    <trip depart="56.88" departLane="best" from="39048504#0" id="moto134" to="59515646#0" type="moto_motorcycle" />
    <trip depart="57.31" departLane="best" from="-278916129#2" id="moto135" to="-577924483#2" type="moto_motorcycle" />
    <trip depart="59.43" departLane="best" from="39081434#2" id="moto140" to="424630814#1" type="moto_motorcycle" />
    <trip depart="61.98" departLane="best" from="265227053#7" id="moto146" to="450833655" type="moto_motorcycle" />
    <trip depart="62.40" departLane="best" from="490216505" id="moto147" to="424211549#3" type="moto_motorcycle" />
    <trip depart="63.25" departLane="best" from="252790570#0" id="moto149" to="235497128#0" type="moto_motorcycle" />
    <trip depart="63.68" departLane="best" from="196799730#3" id="moto150" to="-39077901#0" type="moto_motorcycle" />
    <trip depart="64.10" departLane="best" from="-53801348" id="moto151" to="27030152#1" type="moto_motorcycle" />
    <trip depart="64.52" departLane="best" from="424217266#4" id="moto152" to="450878338#1" type="moto_motorcycle" />
    <trip depart="65.37" departLane="best" from="-39120532#2" id="moto154" to="352366651#1" type="moto_motorcycle" />
    <trip depart="67.07" departLane="best" from="46927934" id="moto158" to="8579488#2" type="moto_motorcycle" />
    <trip depart="67.92" departLane="best" from="157188563#2" id="moto160" to="-430118181#0" type="moto_motorcycle" />
    <trip depart="69.19" departLane="best" from="37916527#3" id="moto163" to="128515118#3" type="moto_motorcycle" />
    <trip depart="69.62" departLane="best" from="39077899#2" id="moto164" to="-38360276#0" type="moto_motorcycle" />
    <trip depart="70.04" departLane="best" from="-672784703#3" id="moto165" to="-211455035#4" type="moto_motorcycle" />
    <trip depart="70.47" departLane="best" from="-465895356#1" id="moto166" to="-56394526#2" type="moto_motorcycle" />
    <trip depart="71.32" departLane="best" from="59515646#6" id="moto168" to="-401300455#9" type="moto_motorcycle" />
    <trip depart="71.74" departLane="best" from="-426510609" id="moto169" to="229480219#1" type="moto_motorcycle" />
    <trip depart="72.17" departLane="best" from="244936665" id="moto170" to="-445750758#0" type="moto_motorcycle" />
    <trip depart="72.59" departLane="best" from="-430128413" id="moto171" to="245893027" type="moto_motorcycle" />
    <trip depart="73.01" departLane="best" from="252274187#0" id="moto172" to="409861831#1" type="moto_motorcycle" />
    <trip depart="73.44" departLane="best" from="424630860#6" id="moto173" to="244936623" type="moto_motorcycle" />
    <trip depart="74.71" departLane="best" from="661786906#3" id="moto176" to="27639569" type="moto_motorcycle" />
    <trip depart="75.56" departLane="best" from="-184855992#1" id="moto178" to="-39056467" type="moto_motorcycle" />
    <trip depart="75.99" departLane="best" from="423976021#8" id="moto179" to="-418365019" type="moto_motorcycle" />
    <trip depart="76.41" departLane="best" from="-198727279#3" id="moto180" to="430127812" type="moto_motorcycle" />
    <trip depart="76.84" departLane="best" from="37916629#1" id="moto181" to="547177360#1" type="moto_motorcycle" />
    <trip depart="77.68" departLane="best" from="427400761" id="moto183" to="516734826" type="moto_motorcycle" />
    <trip depart="78.11" departLane="best" from="-427243102#1" id="moto184" to="-426927700" type="moto_motorcycle" />
    <trip depart="78.53" departLane="best" from="269678077#1" id="moto185" to="-277478974#0" type="moto_motorcycle" />
    <trip depart="78.96" departLane="best" from="-418365019" id="moto186" to="632976630#2" type="moto_motorcycle" />
    <trip depart="79.38" departLane="best" from="426505734#4" id="moto187" to="329262587#0" type="moto_motorcycle" />
    <trip depart="79.81" departLane="best" from="-171848926#0" id="moto188" to="39077897#1" type="moto_motorcycle" />
    <trip depart="80.66" departLane="best" from="171847607#0" id="moto190" to="597462033" type="moto_motorcycle" />
    <trip depart="81.08" departLane="best" from="27474565" id="moto191" to="325009422#1" type="moto_motorcycle" />
    <trip depart="81.93" departLane="best" from="-39014080#2" id="moto193" to="39048531#2" type="moto_motorcycle" />
    <trip depart="84.05" departLane="best" from="-430128168" id="moto198" to="27030077#2" type="moto_motorcycle" />
    <trip depart="84.48" departLane="best" from="-27030008#1" id="moto199" to="211455032#1" type="moto_motorcycle" />
    <trip depart="85.33" departLane="best" from="427243088#4" id="moto201" to="-427400681#3" type="moto_motorcycle" />
    <trip depart="86.60" departLane="best" from="426504424" id="moto204" to="359790125#3" type="moto_motorcycle" />
    <trip depart="87.02" departLane="best" from="424211549#7" id="moto205" to="231355591#0" type="moto_motorcycle" />
    <trip depart="87.87" departLane="best" from="39053432#1" id="moto207" to="37538257" type="moto_motorcycle" />
    <trip depart="88.72" departLane="best" from="454557950" id="moto209" to="430127811" type="moto_motorcycle" />
    <trip depart="89.57" departLane="best" from="-27030089#7" id="moto211" to="38738605#5" type="moto_motorcycle" />
    <trip depart="90.00" departLane="best" from="646564634" id="moto212" to="27639666" type="moto_motorcycle" />
    <trip depart="90.42" departLane="best" from="-27639592#0" id="moto213" to="560185740#3" type="moto_motorcycle" />
    <trip depart="90.84" departLane="best" from="237470831#1" id="moto214" to="8103480#0" type="moto_motorcycle" />
    <trip depart="93.39" departLane="best" from="-105411943" id="moto220" to="430127942" type="moto_motorcycle" />
    <trip depart="94.66" departLane="best" from="124962832" id="moto223" to="172308673#3" type="moto_motorcycle" />
    <trip depart="95.51" departLane="best" from="-430126494#1" id="moto225" to="27030148#2" type="moto_motorcycle" />
    <trip depart="95.94" departLane="best" from="230628530#7" id="moto226" to="230784024" type="moto_motorcycle" />
    <trip depart="96.79" departLane="best" from="141294961#0" id="moto228" to="430127947" type="moto_motorcycle" />
    <trip depart="98.06" departLane="best" from="448209069" id="moto231" to="430128167" type="moto_motorcycle" />
    <trip depart="99.76" departLane="best" from="124962724#0" id="moto235" to="418365025#3" type="moto_motorcycle" />
    <trip depart="100.18" departLane="best" from="8579426" id="moto236" to="72921505" type="moto_motorcycle" />
    <trip depart="101.03" departLane="best" from="231281375#4" id="moto238" to="-73532302#0" type="moto_motorcycle" />
    <trip depart="101.46" departLane="best" from="185627527#0" id="moto239" to="-221635258#1" type="moto_motorcycle" />
    <trip depart="102.31" departLane="best" from="230628808#0" id="moto241" to="424389523#3" type="moto_motorcycle" />
    <trip depart="102.73" departLane="best" from="587918135#1" id="moto242" to="401300455#3" type="moto_motorcycle" />
    <trip depart="103.58" departLane="best" from="-448213346" id="moto244" to="39117764#0" type="moto_motorcycle" />
    <trip depart="104.43" departLane="best" from="278916129#1" id="moto246" to="262851665#0" type="moto_motorcycle" />
    <trip depart="104.85" departLane="best" from="425942439#0" id="moto247" to="-427243088#2" type="moto_motorcycle" />
    <trip depart="107.40" departLane="best" from="-27667573" id="moto253" to="255818924#14" type="moto_motorcycle" />
    <trip depart="107.82" departLane="best" from="334434102#0" id="moto254" to="16975658" type="moto_motorcycle" />
    <trip depart="108.25" departLane="best" from="427018761#5" id="moto255" to="370514752#3" type="moto_motorcycle" />
    <trip depart="109.10" departLane="best" from="172728794" id="moto257" to="229739161#1" type="moto_motorcycle" />
    <trip depart="110.37" departLane="best" from="425923715#0" id="moto260" to="255838497#4" type="moto_motorcycle" />
    <trip depart="110.80" departLane="best" from="-27644490#0" id="moto261" to="27639582#1" type="moto_motorcycle" />
    <trip depart="112.92" departLane="best" from="37916375#2" id="moto266" to="435973648" type="moto_motorcycle" />
    <trip depart="114.19" departLane="best" from="211455035#3" id="moto269" to="493709855#1" type="moto_motorcycle" />
    <trip depart="114.62" departLane="best" from="425838713" id="moto270" to="22999960#1" type="moto_motorcycle" />
    <trip depart="115.89" departLane="best" from="157188563#0" id="moto273" to="39081856#0" type="moto_motorcycle" />
    <trip depart="116.74" departLane="best" from="230784087#4" id="moto275" to="-426507056" type="moto_motorcycle" />
    <trip depart="117.16" departLane="best" from="278992352#0" id="moto276" to="430128041" type="moto_motorcycle" />
    <trip depart="117.59" departLane="best" from="-373580561#0" id="moto277" to="27570521#0" type="moto_motorcycle" />
    <trip depart="120.13" departLane="best" from="369631339" id="moto283" to="72916477#1" type="moto_motorcycle" />
    <trip depart="120.98" departLane="best" from="436333196" id="moto285" to="-27644478#0" type="moto_motorcycle" />
    <trip depart="121.41" departLane="best" from="430118179" id="moto286" to="132236345#3" type="moto_motorcycle" />
    <trip depart="123.53" departLane="best" from="60685694#1" id="moto291" to="28807588#0" type="moto_motorcycle" />
    <trip depart="124.38" departLane="best" from="79172230" id="moto293" to="-632976617#0" type="moto_motorcycle" />
    <trip depart="125.23" departLane="best" from="128511291#1" id="moto295" to="-128508557" type="moto_motorcycle" />
    <trip depart="125.65" departLane="best" from="597462026" id="moto296" to="78878893" type="moto_motorcycle" />
    <trip depart="126.08" departLane="best" from="-39051473#0" id="moto297" to="312295510#2" type="moto_motorcycle" />
    <trip depart="126.50" departLane="best" from="128508558#0" id="moto298" to="37916357#1" type="moto_motorcycle" />
    <trip depart="126.93" departLane="best" from="424211551#9" id="moto299" to="-27660302#0" type="moto_motorcycle" />
    <trip depart="127.35" departLane="best" from="27639615#2" id="moto300" to="451601407#1" type="moto_motorcycle" />
    <trip depart="127.78" departLane="best" from="15260361" id="moto301" to="142906166#3" type="moto_motorcycle" />
    <trip depart="128.20" departLane="best" from="38738777#4" id="moto302" to="39117733#1" type="moto_motorcycle" />
    <trip depart="128.63" departLane="best" from="-329057268" id="moto303" to="369467063#1" type="moto_motorcycle" />
    <trip depart="129.05" departLane="best" from="-230784086#0" id="moto304" to="-373580561#1" type="moto_motorcycle" />
    <trip depart="129.90" departLane="best" from="39081862#0" id="moto306" to="131655879" type="moto_motorcycle" />
    <trip depart="130.32" departLane="best" from="-244936659" id="moto307" to="-27029997#7" type="moto_motorcycle" />
    <trip depart="130.75" departLane="best" from="172728794" id="moto308" to="39081428#1" type="moto_motorcycle" />
    <trip depart="132.02" departLane="best" from="424419378#4" id="moto311" to="184006427" type="moto_motorcycle" />
    <trip depart="132.87" departLane="best" from="-27030089#3" id="moto313" to="430119362" type="moto_motorcycle" />
    <trip depart="133.29" departLane="best" from="407757111#0" id="moto314" to="255818924#4" type="moto_motorcycle" />
    <trip depart="134.14" departLane="best" from="128508563#0" id="moto316" to="431548662" type="moto_motorcycle" />
    <trip depart="134.57" departLane="best" from="-450680118" id="moto317" to="469589498" type="moto_motorcycle" />
    <trip depart="136.69" departLane="best" from="425945261" id="moto322" to="-638729328#1" type="moto_motorcycle" />
    <trip depart="137.12" departLane="best" from="447117761" id="moto323" to="447117757#6" type="moto_motorcycle" />
    <trip depart="137.96" departLane="best" from="430128040" id="moto325" to="39082314#2" type="moto_motorcycle" />
    <trip depart="138.39" departLane="best" from="235497097#0" id="moto326" to="425457913#1" type="moto_motorcycle" />
    <trip depart="139.24" departLane="best" from="223479042#1" id="moto328" to="521260225" type="moto_motorcycle" />
    <trip depart="140.51" departLane="best" from="-48661211" id="moto331" to="16975887#0" type="moto_motorcycle" />
    <trip depart="140.94" departLane="best" from="37916421#1" id="moto332" to="430118176#1" type="moto_motorcycle" />
    <trip depart="142.21" departLane="best" from="448209065#0" id="moto335" to="-427400670#0" type="moto_motorcycle" />
    <trip depart="142.63" departLane="best" from="277478969#1" id="moto336" to="369907196#0" type="moto_motorcycle" />
    <trip depart="143.06" departLane="best" from="38631715#2" id="moto337" to="230628805#4" type="moto_motorcycle" />
    <trip depart="143.48" departLane="best" from="37916464#1" id="moto338" to="245629338#3" type="moto_motorcycle" />
    <trip depart="145.61" departLane="best" from="229480221#0" id="moto343" to="504628567" type="moto_motorcycle" />
    <trip depart="146.03" departLane="best" from="-405489977#0" id="moto344" to="-39081862#0" type="moto_motorcycle" />
    <trip depart="147.30" departLane="best" from="587922690#20" id="moto347" to="185627527#1" type="moto_motorcycle" />
    <trip depart="147.73" departLane="best" from="197054866#2" id="moto348" to="8579183" type="moto_motorcycle" />
    <trip depart="149.43" departLane="best" from="196799741" id="moto352" to="426696421#3" type="moto_motorcycle" />
    <trip depart="149.85" departLane="best" from="-19796858#0" id="moto353" to="-39056475#0" type="moto_motorcycle" />
    <trip depart="150.27" departLane="best" from="39048456" id="moto354" to="471659275" type="moto_motorcycle" />
    <trip depart="151.97" departLane="best" from="19796862#1" id="moto358" to="35472703" type="moto_motorcycle" />
    <trip depart="153.25" departLane="best" from="195270960#2" id="moto361" to="172309984" type="moto_motorcycle" />
    <trip depart="154.10" departLane="best" from="38570166#3" id="moto363" to="192583210#3" type="moto_motorcycle" />
    <trip depart="156.64" departLane="best" from="-430128562" id="moto369" to="131655877" type="moto_motorcycle" />
    <trip depart="157.49" departLane="best" from="133125288" id="moto371" to="577909639#1" type="moto_motorcycle" />
    <trip depart="157.92" departLane="best" from="-27030089#7" id="moto372" to="427400712#1" type="moto_motorcycle" />
    <trip depart="158.34" departLane="best" from="199890396#6" id="moto373" to="424410681#5" type="moto_motorcycle" />
    <trip depart="158.76" departLane="best" from="199918921" id="moto374" to="-430127813#0" type="moto_motorcycle" />
    <trip depart="159.19" departLane="best" from="672784703#2" id="moto375" to="37916643#1" type="moto_motorcycle" />
    <trip depart="160.89" departLane="best" from="128511300" id="moto379" to="212353007" type="moto_motorcycle" />
    <trip depart="162.16" departLane="best" from="-27238983#1" id="moto382" to="-211061207#0" type="moto_motorcycle" />
    <trip depart="162.59" departLane="best" from="-430119212#1" id="moto383" to="-430127944" type="moto_motorcycle" />
    <trip depart="163.01" departLane="best" from="8579726" id="moto384" to="8579938" type="moto_motorcycle" />
    <trip depart="163.86" departLane="best" from="37916365" id="moto386" to="25953773#1" type="moto_motorcycle" />
    <trip depart="165.98" departLane="best" from="-39045997" id="moto391" to="-438470510#0" type="moto_motorcycle" />
    <trip depart="167.26" departLane="best" from="199918918#0" id="moto394" to="8578537#0" type="moto_motorcycle" />
    <trip depart="167.68" departLane="best" from="-37538137#1" id="moto395" to="172745429#2" type="moto_motorcycle" />
    <trip depart="168.10" departLane="best" from="587922690#20" id="moto396" to="-38585123#0" type="moto_motorcycle" />
    <trip depart="168.53" departLane="best" from="-425459298" id="moto397" to="231281389#1" type="moto_motorcycle" />
    <trip depart="169.80" departLane="best" from="-436333197#1" id="moto400" to="-27587528#3" type="moto_motorcycle" />
    <trip depart="170.23" departLane="best" from="244936702#2" id="moto401" to="27030103" type="moto_motorcycle" />
    <trip depart="171.08" departLane="best" from="-211061213#1" id="moto403" to="430127811" type="moto_motorcycle" />
    <trip depart="172.77" departLane="best" from="134462238#0" id="moto407" to="-39053436#0" type="moto_motorcycle" />
    <trip depart="173.20" departLane="best" from="-427243032#5" id="moto408" to="-246848888#0" type="moto_motorcycle" />
    <trip depart="174.05" departLane="best" from="27691635#0" id="moto410" to="8547727#1" type="moto_motorcycle" />
    <trip depart="174.47" departLane="best" from="131681593#0-AddedOffRampEdge" id="moto411" to="237455933#0" type="moto_motorcycle" />
    <trip depart="175.32" departLane="best" from="436488793" id="moto413" to="27639577#2" type="moto_motorcycle" />
    <trip depart="175.75" departLane="best" from="-76695774#1" id="moto414" to="39077896#2" type="moto_motorcycle" />
    <trip depart="176.17" departLane="best" from="-423640299#2" id="moto415" to="244923470#0" type="moto_motorcycle" />
    <trip depart="177.87" departLane="best" from="37916642#0" id="moto419" to="430119362" type="moto_motorcycle" />
    <trip depart="178.29" departLane="best" from="38630646" id="moto420" to="8578569#1" type="moto_motorcycle" />
    <trip depart="179.14" departLane="best" from="-39046625#3" id="moto422" to="426504884#3" type="moto_motorcycle" />
    <trip depart="180.41" departLane="best" from="-172868866" id="moto425" to="35472702" type="moto_motorcycle" />
    <trip depart="181.69" departLane="best" from="-39014082#0" id="moto428" to="38569959#1" type="moto_motorcycle" />
    <trip depart="182.11" departLane="best" from="321139487#2" id="moto429" to="235497128#1" type="moto_motorcycle" />
    <trip depart="182.54" departLane="best" from="684436583#0" id="moto430" to="228351158#1" type="moto_motorcycle" />
    <trip depart="182.96" departLane="best" from="125451142#0" id="moto431" to="-27668535#0" type="moto_motorcycle" />
    <trip depart="183.39" departLane="best" from="-251629004#1" id="moto432" to="425926840" type="moto_motorcycle" />
    <trip depart="183.81" departLane="best" from="-27639585#0" id="moto433" to="436333187" type="moto_motorcycle" />
    <trip depart="185.51" departLane="best" from="-230593245" id="moto437" to="230628807#1" type="moto_motorcycle" />
    <trip depart="185.93" departLane="best" from="-39117742#1" id="moto438" to="-430128618" type="moto_motorcycle" />
    <trip depart="186.36" departLane="best" from="-447117759#3" id="moto439" to="430128168" type="moto_motorcycle" />
    <trip depart="186.78" departLane="best" from="211061214" id="moto440" to="37916649" type="moto_motorcycle" />
    <trip depart="187.21" departLane="best" from="-278992351#1" id="moto441" to="-237455923#0" type="moto_motorcycle" />
    <trip depart="188.48" departLane="best" from="72767342-AddedOnRampEdge" id="moto444" to="-425925625" type="moto_motorcycle" />
    <trip depart="189.33" departLane="best" from="369907196#2" id="moto446" to="312295510#1" type="moto_motorcycle" />
    <trip depart="189.75" departLane="best" from="-27030139#1" id="moto447" to="-27030074#0" type="moto_motorcycle" />
    <trip depart="190.18" departLane="best" from="255838497#4" id="moto448" to="424421112#0" type="moto_motorcycle" />
    <trip depart="191.03" departLane="best" from="-679174870" id="moto450" to="27639629#1" type="moto_motorcycle" />
    <trip depart="191.88" departLane="best" from="299532297#0" id="moto452" to="39081428#2" type="moto_motorcycle" />
    <trip depart="193.15" departLane="best" from="447117759#3" id="moto455" to="430128044" type="moto_motorcycle" />
    <trip depart="193.57" departLane="best" from="39049634" id="moto456" to="221635258#1" type="moto_motorcycle" />
    <trip depart="194.00" departLane="best" from="171484505" id="moto457" to="408012561#1" type="moto_motorcycle" />
    <trip depart="195.27" departLane="best" from="430128040" id="moto460" to="-183752965" type="moto_motorcycle" />
    <trip depart="196.12" departLane="best" from="277478972#0" id="moto462" to="438471361" type="moto_motorcycle" />
    <trip depart="196.55" departLane="best" from="37909846" id="moto463" to="558033354#0" type="moto_motorcycle" />
    <trip depart="197.39" departLane="best" from="430126619#1" id="moto465" to="620987193#1" type="moto_motorcycle" />
    <trip depart="199.09" departLane="best" from="72767353#0" id="moto469" to="359790121#12" type="moto_motorcycle" />
    <trip depart="199.52" departLane="best" from="244821389#0" id="moto470" to="451481796" type="moto_motorcycle" />
    <trip depart="199.94" departLane="best" from="39048489#1" id="moto471" to="39046625#8" type="moto_motorcycle" />
    <trip depart="200.37" departLane="best" from="14518869" id="moto472" to="28807588#1" type="moto_motorcycle" />
    <trip depart="200.79" departLane="best" from="-560266875#0" id="moto473" to="38508516#2" type="moto_motorcycle" />
    <trip depart="201.22" departLane="best" from="8579414#0" id="moto474" to="430124768#1" type="moto_motorcycle" />
    <trip depart="201.64" departLane="best" from="230784033#1" id="moto475" to="229481500" type="moto_motorcycle" />
    <trip depart="202.91" departLane="best" from="-425945263" id="moto478" to="33899996#1" type="moto_motorcycle" />