<?xml version="1.0" encoding="UTF-8"?>
<!-- generated on 2019-05-01 11:51:12.090668 by $Id$ via randomTrips.py
  options: 
-->
<routes xmlns:xsi="http://www.w3.org/2001/XMLSchema-instance" xsi:noNamespaceSchemaLocation="http://sumo.dlr.de/xsd/routes_file.xsd">
    <vType id="veh_passenger" vClass="passenger">
    </vType>
    <trip id="veh1" depart="0.27" departLane="best" from="-465984314" to="-490216505" type="veh_passenger"/>
    <trip id="veh2" depart="0.54" departLane="best" from="39117743#0" to="39082313#1" type="veh_passenger"/>
    <trip id="veh3" depart="0.81" departLane="best" from="471659281" to="-27644490#0" type="veh_passenger"/>
    <trip id="veh4" depart="1.08" departLane="best" from="184765909#3" to="-183853709" type="veh_passenger"/>
    <trip id="veh5" depart="1.35" departLane="best" from="-430127812" to="27639631#1" type="veh_passenger"/>
    <trip id="veh6" depart="1.62" departLane="best" from="-192583208#9" to="-430128047#1" type="veh_passenger"/>
    <trip id="veh7" depart="1.89" departLane="best" from="370514752#0" to="321139490#2" type="veh_passenger"/>
    <trip id="veh8" depart="2.16" departLane="best" from="-430127941" to="37538257" type="veh_passenger"/>
    <trip id="veh9" depart="2.43" departLane="best" from="426696438" to="-128511300" type="veh_passenger"/>
    <trip id="veh10" depart="2.70" departLane="best" from="426605965#3" to="420920879" type="veh_passenger"/>
    <trip id="veh11" depart="2.97" departLane="best" from="128508553" to="-39117758#0" type="veh_passenger"/>
    <trip id="veh13" depart="3.51" departLane="best" from="-310454394" to="-318211694" type="veh_passenger"/>
    <trip id="veh14" depart="3.78" departLane="best" from="430127944" to="37916524#0" type="veh_passenger"/>
    <trip id="veh15" depart="4.05" departLane="best" from="426696421#2" to="425850168" type="veh_passenger"/>
    <trip id="veh16" depart="4.32" departLane="best" from="251629012" to="71958447#3" type="veh_passenger"/>
    <trip id="veh17" depart="4.59" departLane="best" from="15069448" to="330594194" type="veh_passenger"/>
    <trip id="veh18" depart="4.86" departLane="best" from="427400766#1" to="38630328#0" type="veh_passenger"/>
    <trip id="veh19" depart="5.13" departLane="best" from="438225725" to="369907197#13" type="veh_passenger"/>
    <trip id="veh20" depart="5.40" departLane="best" from="39048446" to="-230784037" type="veh_passenger"/>
    <trip id="veh21" depart="5.67" departLane="best" from="-430128169" to="134363382" type="veh_passenger"/>
    <trip id="veh22" depart="5.94" departLane="best" from="-27639666" to="-547305685#1" type="veh_passenger"/>
    <trip id="veh23" depart="6.21" departLane="best" from="-34439046#5" to="130808658#2" type="veh_passenger"/>
    <trip id="veh24" depart="6.48" departLane="best" from="359790090#1" to="199918917#2" type="veh_passenger"/>
    <trip id="veh25" depart="6.75" departLane="best" from="134462241#4" to="-445750758#0" type="veh_passenger"/>
    <trip id="veh26" depart="7.02" departLane="best" from="-450505896" to="56394188" type="veh_passenger"/>
    <trip id="veh27" depart="7.29" departLane="best" from="369907212#5" to="37954250" type="veh_passenger"/>
    <trip id="veh28" depart="7.56" departLane="best" from="-424416256" to="425846511#0" type="veh_passenger"/>
    <trip id="veh29" depart="7.83" departLane="best" from="-39117758#3" to="229480982#1" type="veh_passenger"/>
    <trip id="veh30" depart="8.10" departLane="best" from="8578539#0" to="39046427#3" type="veh_passenger"/>
    <trip id="veh31" depart="8.37" departLane="best" from="27030032#0" to="39120553#1" type="veh_passenger"/>
    <trip id="veh32" depart="8.64" departLane="best" from="430126275" to="427400793#0" type="veh_passenger"/>
    <trip id="veh33" depart="8.91" departLane="best" from="-430128406" to="-188303695#1" type="veh_passenger"/>
    <trip id="veh34" depart="9.18" departLane="best" from="-632976617#1" to="127683182" type="veh_passenger"/>
    <trip id="veh36" depart="9.73" departLane="best" from="451949922#4" to="16767770#1" type="veh_passenger"/>
    <trip id="veh38" depart="10.27" departLane="best" from="517412540" to="251628568#2" type="veh_passenger"/>
    <trip id="veh39" depart="10.54" departLane="best" from="-448209065#3" to="-661529405" type="veh_passenger"/>
    <trip id="veh40" depart="10.81" departLane="best" from="27030143#0" to="124962721#0" type="veh_passenger"/>
    <trip id="veh42" depart="11.35" departLane="best" from="172297061#1" to="-472258016" type="veh_passenger"/>
    <trip id="veh43" depart="11.62" departLane="best" from="85796593#2" to="27639666" type="veh_passenger"/>
    <trip id="veh44" depart="11.89" departLane="best" from="-28807664#2" to="-233446236#0" type="veh_passenger"/>
    <trip id="veh45" depart="12.16" departLane="best" from="-37808165#0" to="38738764#1" type="veh_passenger"/>
    <trip id="veh46" depart="12.43" departLane="best" from="426505695#0" to="237048502#1" type="veh_passenger"/>
    <trip id="veh47" depart="12.70" departLane="best" from="-27030026#1" to="22999717" type="veh_passenger"/>
    <trip id="veh48" depart="12.97" departLane="best" from="8579488#1" to="278992347" type="veh_passenger"/>
    <trip id="veh49" depart="13.24" departLane="best" from="72614019#0" to="448210021#1" type="veh_passenger"/>
    <trip id="veh50" depart="13.51" departLane="best" from="-151882388#1" to="424630827#1" type="veh_passenger"/>
    <trip id="veh51" depart="13.78" departLane="best" from="38585122#0" to="28807664#1" type="veh_passenger"/>
    <trip id="veh52" depart="14.05" departLane="best" from="-450505896" to="39046625#4" type="veh_passenger"/>
    <trip id="veh53" depart="14.32" departLane="best" from="-37909836" to="239019906" type="veh_passenger"/>
    <trip id="veh54" depart="14.59" departLane="best" from="221635259" to="615324080#0" type="veh_passenger"/>
    <trip id="veh55" depart="14.86" departLane="best" from="451659856#0" to="124962725#1" type="veh_passenger"/>
    <trip id="veh56" depart="15.13" departLane="best" from="237048465#1" to="-427348529" type="veh_passenger"/>
    <trip id="veh57" depart="15.40" departLane="best" from="514557406" to="454576373" type="veh_passenger"/>
    <trip id="veh58" depart="15.67" departLane="best" from="-517698790" to="39046111#0" type="veh_passenger"/>
    <trip id="veh59" depart="15.94" departLane="best" from="290026189#0" to="-39082320#1" type="veh_passenger"/>
    <trip id="veh60" depart="16.21" departLane="best" from="424217262#2" to="301151224" type="veh_passenger"/>
    <trip id="veh61" depart="16.48" departLane="best" from="425691426" to="278992351#2" type="veh_passenger"/>
    <trip id="veh62" depart="16.75" departLane="best" from="-124962747#2" to="172297075#5" type="veh_passenger"/>
    <trip id="veh63" depart="17.02" departLane="best" from="-172728802#2" to="53826080#1" type="veh_passenger"/>
    <trip id="veh64" depart="17.29" departLane="best" from="454570252#1" to="431552168" type="veh_passenger"/>
    <trip id="veh65" depart="17.56" departLane="best" from="-56394526#2" to="-244936654#3" type="veh_passenger"/>
    <trip id="veh66" depart="17.83" departLane="best" from="454570242" to="587922690#1" type="veh_passenger"/>
    <trip id="veh67" depart="18.10" departLane="best" from="-27667565" to="27030155" type="veh_passenger"/>
    <trip id="veh68" depart="18.37" departLane="best" from="-27030148#1" to="426927761#3" type="veh_passenger"/>
    <trip id="veh69" depart="18.64" departLane="best" from="424396207#3" to="-39014081#1" type="veh_passenger"/>
    <trip id="veh70" depart="18.91" departLane="best" from="231281381#2" to="329094557#3" type="veh_passenger"/>
    <trip id="veh71" depart="19.18" departLane="best" from="-448209065#3" to="454683135" type="veh_passenger"/>
    <trip id="veh72" depart="19.45" departLane="best" from="184855988#4" to="-448210019#2" type="veh_passenger"/>
    <trip id="veh73" depart="19.72" departLane="best" from="252790571#5" to="425854842" type="veh_passenger"/>
    <trip id="veh74" depart="19.99" departLane="best" from="-430118180" to="16652867#0" type="veh_passenger"/>
    <trip id="veh75" depart="20.26" departLane="best" from="8579414#0" to="39049638#0" type="veh_passenger"/>
    <trip id="veh76" depart="20.53" departLane="best" from="19797649#1" to="27667560" type="veh_passenger"/>
    <trip id="veh77" depart="20.80" departLane="best" from="-38630640" to="-503239704#0" type="veh_passenger"/>
    <trip id="veh78" depart="21.07" departLane="best" from="127682584" to="37538137#0" type="veh_passenger"/>
    <trip id="veh79" depart="21.34" departLane="best" from="-430128408" to="-477789804#0" type="veh_passenger"/>
    <trip id="veh80" depart="21.61" departLane="best" from="-27586531" to="38740544" type="veh_passenger"/>
    <trip id="veh81" depart="21.88" departLane="best" from="-430128406" to="493709855#1" type="veh_passenger"/>
    <trip id="veh82" depart="22.15" departLane="best" from="436647799" to="-27030009" type="veh_passenger"/>
    <trip id="veh83" depart="22.42" departLane="best" from="-430129640" to="39080244#3" type="veh_passenger"/>
    <trip id="veh84" depart="22.69" departLane="best" from="-430126616" to="-39048456" type="veh_passenger"/>
    <trip id="veh85" depart="22.96" departLane="best" from="577926288" to="359889890#2" type="veh_passenger"/>
    <trip id="veh86" depart="23.23" departLane="best" from="230784033#6" to="430118176#1" type="veh_passenger"/>
    <trip id="veh87" depart="23.50" departLane="best" from="426696424" to="-430119210" type="veh_passenger"/>
    <trip id="veh89" depart="24.04" departLane="best" from="184855991#4" to="257177219#3" type="veh_passenger"/>
    <trip id="veh90" depart="24.31" departLane="best" from="39081849#5" to="39081856#0" type="veh_passenger"/>
    <trip id="veh92" depart="24.85" departLane="best" from="172309981#1" to="183853709" type="veh_passenger"/>
    <trip id="veh93" depart="25.12" departLane="best" from="438225725" to="-672784703#0" type="veh_passenger"/>
    <trip id="veh94" depart="25.39" departLane="best" from="-427253378" to="244936670#1" type="veh_passenger"/>
    <trip id="veh95" depart="25.66" departLane="best" from="184765909#2" to="130808662" type="veh_passenger"/>
    <trip id="veh96" depart="25.93" departLane="best" from="-436333197#1" to="519490875" type="veh_passenger"/>
    <trip id="veh97" depart="26.20" departLane="best" from="203314697" to="449611216#1" type="veh_passenger"/>
    <trip id="veh98" depart="26.47" departLane="best" from="265227053#7" to="-236899704" type="veh_passenger"/>
    <trip id="veh99" depart="26.74" departLane="best" from="8579904#1" to="436333185#0" type="veh_passenger"/>
    <trip id="veh100" depart="27.01" departLane="best" from="68280085#3" to="524259839-AddedOnRampEdge" type="veh_passenger"/>
    <trip id="veh101" depart="27.28" departLane="best" from="430128047#0" to="-425934225" type="veh_passenger"/>
    <trip id="veh102" depart="27.55" departLane="best" from="231355575#8" to="-454570252#1" type="veh_passenger"/>
    <trip id="veh103" depart="27.82" departLane="best" from="172297075#3" to="-246307536#1" type="veh_passenger"/>
    <trip id="veh104" depart="28.09" departLane="best" from="151882388#1" to="8103468#1" type="veh_passenger"/>
    <trip id="veh105" depart="28.36" departLane="best" from="-448209066" to="430115790" type="veh_passenger"/>
    <trip id="veh106" depart="28.63" departLane="best" from="227607069" to="237212803#2" type="veh_passenger"/>
    <trip id="veh108" depart="29.18" departLane="best" from="27030026#0" to="424586863#1" type="veh_passenger"/>
    <trip id="veh109" depart="29.45" departLane="best" from="-39080227" to="14520294" type="veh_passenger"/>
    <trip id="veh110" depart="29.72" departLane="best" from="679367236" to="369907203#5" type="veh_passenger"/>
    <trip id="veh111" depart="29.99" departLane="best" from="255838497#3" to="426510609" type="veh_passenger"/>
    <trip id="veh112" depart="30.26" departLane="best" from="-251712235#1" to="373575837#0" type="veh_passenger"/>
    <trip id="veh113" depart="30.53" departLane="best" from="237212803#0" to="438638507" type="veh_passenger"/>
    <trip id="veh114" depart="30.80" departLane="best" from="-39081428#2" to="638729322#2" type="veh_passenger"/>
    <trip id="veh115" depart="31.07" departLane="best" from="-27639666" to="-430118177#0" type="veh_passenger"/>
    <trip id="veh116" depart="31.34" departLane="best" from="27691796#1" to="39081891#0" type="veh_passenger"/>
    <trip id="veh117" depart="31.61" departLane="best" from="-430128619" to="-38550804#0" type="veh_passenger"/>
    <trip id="veh119" depart="32.15" departLane="best" from="27691635#4" to="38630338#1" type="veh_passenger"/>
    <trip id="veh120" depart="32.42" departLane="best" from="184013915#2" to="37253818" type="veh_passenger"/>
    <trip id="veh121" depart="32.69" departLane="best" from="244936647#1" to="558094283" type="veh_passenger"/>
    <trip id="veh122" depart="32.96" departLane="best" from="-430119363" to="424421108" type="veh_passenger"/>
    <trip id="veh123" depart="33.23" departLane="best" from="-431546440" to="230784028#2" type="veh_passenger"/>
    <trip id="veh124" depart="33.50" departLane="best" from="37916527#4" to="15260500#0" type="veh_passenger"/>
    <trip id="veh125" depart="33.77" departLane="best" from="-635705576" to="426600404" type="veh_passenger"/>
    <trip id="veh126" depart="34.04" departLane="best" from="-27587534#0" to="250047718#1" type="veh_passenger"/>
    <trip id="veh128" depart="34.58" departLane="best" from="-27639582#1" to="-451481106#0" type="veh_passenger"/>
    <trip id="veh129" depart="34.85" departLane="best" from="-448209066" to="557392497#1" type="veh_passenger"/>
    <trip id="veh130" depart="35.12" departLane="best" from="454745478#1" to="465984314" type="veh_passenger"/>
    <trip id="veh131" depart="35.39" departLane="best" from="134462238#1" to="-401300455#0" type="veh_passenger"/>
    <trip id="veh132" depart="35.66" departLane="best" from="430114472#0" to="424210762#1" type="veh_passenger"/>
    <trip id="veh133" depart="35.93" departLane="best" from="310454388#0" to="8375715#1" type="veh_passenger"/>
    <trip id="veh134" depart="36.20" departLane="best" from="373576675" to="-131628108#0" type="veh_passenger"/>
    <trip id="veh136" depart="36.74" departLane="best" from="37916343#0" to="565539538#3" type="veh_passenger"/>
    <trip id="veh137" depart="37.01" departLane="best" from="-39048475#1" to="-37916524#3" type="veh_passenger"/>
    <trip id="veh138" depart="37.28" departLane="best" from="-37538137#0" to="330594204" type="veh_passenger"/>
    <trip id="veh139" depart="37.55" departLane="best" from="-462656809" to="37916533#2" type="veh_passenger"/>
    <trip id="veh140" depart="37.82" departLane="best" from="39053420#0" to="-431548666#0" type="veh_passenger"/>
    <trip id="veh141" depart="38.09" departLane="best" from="35472704" to="124962748#3" type="veh_passenger"/>
    <trip id="veh142" depart="38.36" departLane="best" from="231404788#2" to="493709855#1" type="veh_passenger"/>
    <trip id="veh143" depart="38.63" departLane="best" from="430127492#0" to="-277794712#0" type="veh_passenger"/>
    <trip id="veh144" depart="38.90" departLane="best" from="184855991#4" to="128675561#0" type="veh_passenger"/>
    <trip id="veh145" depart="39.17" departLane="best" from="-131628109#2" to="427253375" type="veh_passenger"/>
    <trip id="veh146" depart="39.44" departLane="best" from="359790121#3" to="105411943" type="veh_passenger"/>
    <trip id="veh147" depart="39.71" departLane="best" from="39120544#0" to="330594187#1" type="veh_passenger"/>
    <trip id="veh148" depart="39.98" departLane="best" from="186496569#0" to="-131628119#1" type="veh_passenger"/>
    <trip id="veh150" depart="40.52" departLane="best" from="490216499#0" to="322969633" type="veh_passenger"/>
    <trip id="veh151" depart="40.79" departLane="best" from="430118176#0" to="370514752#0" type="veh_passenger"/>
    <trip id="veh153" depart="41.33" departLane="best" from="-565161446#0" to="490216495#1" type="veh_passenger"/>
    <trip id="veh154" depart="41.60" departLane="best" from="426505743#1" to="448210021#0" type="veh_passenger"/>
    <trip id="veh155" depart="41.87" departLane="best" from="487911486#0" to="-445750758#5" type="veh_passenger"/>
    <trip id="veh156" depart="42.14" departLane="best" from="-436333197#1" to="-33968268" type="veh_passenger"/>
    <trip id="veh157" depart="42.41" departLane="best" from="425850165#1" to="469589498" type="veh_passenger"/>
    <trip id="veh158" depart="42.68" departLane="best" from="172745482#1" to="38630650#3" type="veh_passenger"/>
    <trip id="veh159" depart="42.95" departLane="best" from="-39078623" to="545303396#0" type="veh_passenger"/>
    <trip id="veh160" depart="43.22" departLane="best" from="439630284" to="72767330" type="veh_passenger"/>
    <trip id="veh161" depart="43.49" departLane="best" from="426927713#1" to="46892969#2" type="veh_passenger"/>
    <trip id="veh162" depart="43.76" departLane="best" from="-185627525" to="425930859" type="veh_passenger"/>
    <trip id="veh163" depart="44.03" departLane="best" from="124962722" to="547305684#0" type="veh_passenger"/>
    <trip id="veh164" depart="44.30" departLane="best" from="426599085" to="450555265" type="veh_passenger"/>
    <trip id="veh165" depart="44.57" departLane="best" from="426927713#1" to="125451135#1" type="veh_passenger"/>
    <trip id="veh166" depart="44.84" departLane="best" from="425930861#1" to="-373580561#2" type="veh_passenger"/>
    <trip id="veh167" depart="45.11" departLane="best" from="448213345#0" to="448209065#3" type="veh_passenger"/>
    <trip id="veh168" depart="45.38" departLane="best" from="-430127946" to="430128408" type="veh_passenger"/>
    <trip id="veh169" depart="45.65" departLane="best" from="230395380#0" to="16238213#2" type="veh_passenger"/>
    <trip id="veh170" depart="45.92" departLane="best" from="426505734#2" to="-514557409" type="veh_passenger"/>
    <trip id="veh171" depart="46.19" departLane="best" from="-184745785#1" to="-430126494#0" type="veh_passenger"/>
    <trip id="veh172" depart="46.46" departLane="best" from="-8579169#3" to="450678401" type="veh_passenger"/>
    <trip id="veh173" depart="46.73" departLane="best" from="679174598#0" to="131628104#0" type="veh_passenger"/>
    <trip id="veh174" depart="47.00" departLane="best" from="369630802#1" to="231281385#2" type="veh_passenger"/>
    <trip id="veh175" depart="47.27" departLane="best" from="79160529" to="28807592#3" type="veh_passenger"/>
    <trip id="veh176" depart="47.54" departLane="best" from="587922690#0" to="-37916524#2" type="veh_passenger"/>
    <trip id="veh177" depart="47.81" departLane="best" from="71958447#4" to="-427348456" type="veh_passenger"/>
    <trip id="veh178" depart="48.08" departLane="best" from="672784702#0" to="124962784" type="veh_passenger"/>
    <trip id="veh179" depart="48.36" departLane="best" from="-377396455#1" to="239019906" type="veh_passenger"/>
    <trip id="veh180" depart="48.63" departLane="best" from="39081435" to="16765274#3" type="veh_passenger"/>
    <trip id="veh181" depart="48.90" departLane="best" from="28807488#2" to="27644485#1" type="veh_passenger"/>
    <trip id="veh182" depart="49.17" departLane="best" from="16238438#2" to="369907196#5" type="veh_passenger"/>
    <trip id="veh183" depart="49.44" departLane="best" from="-436647799" to="424212160" type="veh_passenger"/>
    <trip id="veh184" depart="49.71" departLane="best" from="-128508551#1" to="524259147#1" type="veh_passenger"/>
    <trip id="veh186" depart="50.25" departLane="best" from="39120556#0" to="39081424#2" type="veh_passenger"/>
    <trip id="veh187" depart="50.52" departLane="best" from="133333367#0" to="-27029999#0" type="veh_passenger"/>
    <trip id="veh190" depart="51.33" departLane="best" from="39053436#1" to="15263136#0" type="veh_passenger"/>
    <trip id="veh191" depart="51.60" departLane="best" from="-577930659#0" to="231355575#8" type="veh_passenger"/>
    <trip id="veh193" depart="52.14" departLane="best" from="-38841784#3" to="237048446#6" type="veh_passenger"/>
    <trip id="veh194" depart="52.41" departLane="best" from="587922690#4" to="39082320#0" type="veh_passenger"/>
    <trip id="veh195" depart="52.68" departLane="best" from="488673698" to="38583815#0" type="veh_passenger"/>
    <trip id="veh196" depart="52.95" departLane="best" from="-519183088" to="325044597#1" type="veh_passenger"/>
    <trip id="veh197" depart="53.22" departLane="best" from="-123103598#3" to="133333368#0" type="veh_passenger"/>
    <trip id="veh198" depart="53.49" departLane="best" from="192583209#0" to="369907209#4" type="veh_passenger"/>
    <trip id="veh199" depart="53.76" departLane="best" from="373580563" to="255845156#3" type="veh_passenger"/>
    <trip id="veh200" depart="54.03" departLane="best" from="202867531#0" to="-454570252#1" type="veh_passenger"/>
    <trip id="veh201" depart="54.30" departLane="best" from="230784085#1" to="490216502" type="veh_passenger"/>
    <trip id="veh202" depart="54.57" departLane="best" from="345301157#1" to="183462546" type="veh_passenger"/>
    <trip id="veh203" depart="54.84" departLane="best" from="427243062#0" to="426599087#1" type="veh_passenger"/>
    <trip id="veh204" depart="55.11" departLane="best" from="37916568" to="-503239702" type="veh_passenger"/>
    <trip id="veh205" depart="55.38" departLane="best" from="-430115790" to="-172297063#4" type="veh_passenger"/>
    <trip id="veh206" depart="55.65" departLane="best" from="-431550230" to="269678077#6" type="veh_passenger"/>
    <trip id="veh207" depart="55.92" departLane="best" from="430128415#0" to="-27030031#4" type="veh_passenger"/>
    <trip id="veh208" depart="56.19" departLane="best" from="183489045#10-AddedOffRampEdge" to="38738784" type="veh_passenger"/>
    <trip id="veh210" depart="56.73" departLane="best" from="234501228" to="-635718958#0" type="veh_passenger"/>
    <trip id="veh211" depart="57.00" departLane="best" from="37538109#1" to="-128508558#1" type="veh_passenger"/>
    <trip id="veh212" depart="57.27" departLane="best" from="420949442#1" to="427243118" type="veh_passenger"/>
    <trip id="veh213" depart="57.54" departLane="best" from="-374915865" to="237455931" type="veh_passenger"/>
    <trip id="veh214" depart="57.81" departLane="best" from="-425691410" to="629122328" type="veh_passenger"/>
    <trip id="veh216" depart="58.35" departLane="best" from="-436333197#0" to="438470921" type="veh_passenger"/>
    <trip id="veh217" depart="58.62" departLane="best" from="229480222" to="430127541" type="veh_passenger"/>
    <trip id="veh218" depart="58.89" departLane="best" from="37916435" to="8547727#0" type="veh_passenger"/>
    <trip id="veh219" depart="59.16" departLane="best" from="27691979" to="59515641#0" type="veh_passenger"/>
    <trip id="veh220" depart="59.43" departLane="best" from="471338742#1" to="38508522" type="veh_passenger"/>
    <trip id="veh221" depart="59.70" departLane="best" from="39053433#0" to="27639629#1" type="veh_passenger"/>
    <trip id="veh222" depart="59.97" departLane="best" from="427400867#1" to="325044597#0" type="veh_passenger"/>
    <trip id="veh224" depart="60.51" departLane="best" from="231281375#2" to="-8103459#2" type="veh_passenger"/>
    <trip id="veh225" depart="60.78" departLane="best" from="-436325257" to="39046000" type="veh_passenger"/>
    <trip id="veh226" depart="61.05" departLane="best" from="424396207#2" to="27668372#0" type="veh_passenger"/>
    <trip id="veh227" depart="61.32" departLane="best" from="334434102#0" to="128515117#0" type="veh_passenger"/>
    <trip id="veh228" depart="61.59" departLane="best" from="-27639638" to="133124798#0" type="veh_passenger"/>
    <trip id="veh229" depart="61.86" departLane="best" from="-462656809" to="171847941#0-AddedOffRampEdge" type="veh_passenger"/>
    <trip id="veh231" depart="62.40" departLane="best" from="-430128409" to="416453603" type="veh_passenger"/>
    <trip id="veh232" depart="62.67" departLane="best" from="39048479" to="-251629009#1" type="veh_passenger"/>
    <trip id="veh233" depart="62.94" departLane="best" from="172868748#2" to="312280065#0" type="veh_passenger"/>
    <trip id="veh234" depart="63.21" departLane="best" from="183752954#0" to="-438225725" type="veh_passenger"/>
    <trip id="veh235" depart="63.48" departLane="best" from="184013925#0" to="493709855#0" type="veh_passenger"/>
    <trip id="veh236" depart="63.75" departLane="best" from="27639673" to="418365025#1" type="veh_passenger"/>
    <trip id="veh237" depart="64.02" departLane="best" from="436333189" to="427243019#0" type="veh_passenger"/>
    <trip id="veh238" depart="64.29" departLane="best" from="15260400" to="-128511296" type="veh_passenger"/>
    <trip id="veh239" depart="64.56" departLane="best" from="130808657#0" to="426603442#1" type="veh_passenger"/>
    <trip id="veh241" depart="65.10" departLane="best" from="184012484" to="426507060#1" type="veh_passenger"/>
    <trip id="veh242" depart="65.37" departLane="best" from="261785599#0" to="37916499" type="veh_passenger"/>
    <trip id="veh243" depart="65.64" departLane="best" from="-430127941" to="-472258016" type="veh_passenger"/>
    <trip id="veh244" depart="65.91" departLane="best" from="196799738#0" to="-172868948" type="veh_passenger"/>
    <trip id="veh245" depart="66.18" departLane="best" from="125451135#2" to="39117189#4" type="veh_passenger"/>
    <trip id="veh246" depart="66.45" departLane="best" from="172728794" to="-425930848" type="veh_passenger"/>
    <trip id="veh248" depart="66.99" departLane="best" from="330594195#1" to="-172744225" type="veh_passenger"/>
    <trip id="veh249" depart="67.26" departLane="best" from="16975933" to="351360736" type="veh_passenger"/>
    <trip id="veh250" depart="67.53" departLane="best" from="-192764534" to="39048440#0" type="veh_passenger"/>
    <trip id="veh251" depart="67.81" departLane="best" from="-39048494#4" to="252792311" type="veh_passenger"/>
    <trip id="veh252" depart="68.08" departLane="best" from="-244936600" to="229480221#1" type="veh_passenger"/>
    <trip id="veh254" depart="68.62" departLane="best" from="424211905#2" to="229480221#1" type="veh_passenger"/>
    <trip id="veh255" depart="68.89" departLane="best" from="423496969" to="431552170" type="veh_passenger"/>
    <trip id="veh256" depart="69.16" departLane="best" from="-436333210" to="-27639597" type="veh_passenger"/>
    <trip id="veh257" depart="69.43" departLane="best" from="-172728802#1" to="301151225#0" type="veh_passenger"/>
    <trip id="veh258" depart="69.70" departLane="best" from="9931242#0" to="186371501#3" type="veh_passenger"/>
    <trip id="veh259" depart="69.97" departLane="best" from="370514752#3" to="428111145#0" type="veh_passenger"/>
    <trip id="veh261" depart="70.51" departLane="best" from="62265344#0" to="-430128415#0" type="veh_passenger"/>
    <trip id="veh262" depart="70.78" departLane="best" from="-172744389" to="-39081889" type="veh_passenger"/>
    <trip id="veh263" depart="71.05" departLane="best" from="-38738779#1" to="39080244#4" type="veh_passenger"/>
    <trip id="veh264" depart="71.32" departLane="best" from="27333554#0" to="-469771179#0" type="veh_passenger"/>
    <trip id="veh265" depart="71.59" departLane="best" from="39046005#6" to="427243056#0" type="veh_passenger"/>
    <trip id="veh266" depart="71.86" departLane="best" from="-418365015" to="37916640#0" type="veh_passenger"/>
    <trip id="veh267" depart="72.13" departLane="best" from="409861330#1" to="-37916466" type="veh_passenger"/>
    <trip id="veh268" depart="72.40" departLane="best" from="427243088#3" to="661786916" type="veh_passenger"/>
    <trip id="veh270" depart="72.94" departLane="best" from="-59515646#1" to="39082320#0" type="veh_passenger"/>
    <trip id="veh271" depart="73.21" departLane="best" from="649260345" to="230784033#4" type="veh_passenger"/>
    <trip id="veh272" depart="73.48" departLane="best" from="39051666" to="-27030139#5" type="veh_passenger"/>
    <trip id="veh273" depart="73.75" departLane="best" from="38738605#5" to="38738612#2" type="veh_passenger"/>
    <trip id="veh274" depart="74.02" departLane="best" from="-35472705" to="427348429" type="veh_passenger"/>
    <trip id="veh275" depart="74.29" departLane="best" from="430128618" to="37916449#1" type="veh_passenger"/>
    <trip id="veh276" depart="74.56" departLane="best" from="-38631692#0" to="79765662" type="veh_passenger"/>
    <trip id="veh277" depart="74.83" departLane="best" from="425925625" to="185627524#1" type="veh_passenger"/>
    <trip id="veh278" depart="75.10" departLane="best" from="186496572#3" to="211455039" type="veh_passenger"/>
    <trip id="veh279" depart="75.37" departLane="best" from="237455932#0" to="184013925#0" type="veh_passenger"/>
    <trip id="veh280" depart="75.64" departLane="best" from="430128415#0" to="430128620" type="veh_passenger"/>
    <trip id="veh281" depart="75.91" departLane="best" from="-370514752#0" to="638729322#2" type="veh_passenger"/>
    <trip id="veh282" depart="76.18" departLane="best" from="358287045#2" to="431548667" type="veh_passenger"/>
    <trip id="veh283" depart="76.45" departLane="best" from="39048489#3" to="239019913#1" type="veh_passenger"/>
    <trip id="veh284" depart="76.72" departLane="best" from="39082320#1" to="662540606#1" type="veh_passenger"/>
    <trip id="veh285" depart="76.99" departLane="best" from="-453637962" to="430127946" type="veh_passenger"/>
    <trip id="veh286" depart="77.26" departLane="best" from="252274187#1-AddedOffRampEdge" to="27030123#0" type="veh_passenger"/>
    <trip id="veh287" depart="77.53" departLane="best" from="196799735#2" to="425923723#1" type="veh_passenger"/>
    <trip id="veh288" depart="77.80" departLane="best" from="-450686064" to="438471390#1" type="veh_passenger"/>
    <trip id="veh289" depart="78.07" departLane="best" from="427400877" to="-27644479" type="veh_passenger"/>