<?xml version="1.0" encoding="UTF-8"?>
<!-- generated on 2019-05-01 11:51:39.937247 by $Id$ via randomTrips.py
  options: 
-->
<routes xmlns:xsi="http://www.w3.org/2001/XMLSchema-instance" xsi:noNamespaceSchemaLocation="http://sumo.dlr.de/xsd/routes_file.xsd">
    <vType id="moto_motorcycle" vClass="motorcycle">
    </vType>
    <trip id="moto0" depart="0.00" departLane="best" from="265726446" to="72614060" type="moto_motorcycle"/>
    <trip id="moto1" depart="0.42" departLane="best" from="172297071#1" to="318221356#6" type="moto_motorcycle"/>
    <trip id="moto2" depart="0.85" departLane="best" from="-431546514" to="141294961#4" type="moto_motorcycle"/>
    <trip id="moto3" depart="1.27" departLane="best" from="-424630814#2" to="424630809#1" type="moto_motorcycle"/>
    <trip id="moto4" depart="1.70" departLane="best" from="184742325-AddedOnRampEdge" to="-490216499#0" type="moto_motorcycle"/>
    <trip id="moto5" depart="2.12" departLane="best" from="-27030017#1" to="229739161#1" type="moto_motorcycle"/>
    <trip id="moto6" depart="2.55" departLane="best" from="38738604" to="278992349" type="moto_motorcycle"/>
    <trip id="moto7" depart="2.97" departLane="best" from="-37909859#0" to="237587407#5" type="moto_motorcycle"/>
    <trip id="moto8" depart="3.40" departLane="best" from="-172308673#3" to="556750747#6" type="moto_motorcycle"/>
    <trip id="moto9" depart="3.82" departLane="best" from="229480982#4" to="27644477#2" type="moto_motorcycle"/>
    <trip id="moto10" depart="4.25" departLane="best" from="231404792#0" to="427253359#2" type="moto_motorcycle"/>
    <trip id="moto11" depart="4.67" departLane="best" from="8579908" to="435973651#1-AddedOffRampEdge" type="moto_motorcycle"/>
    <trip id="moto12" depart="5.09" departLane="best" from="471338742#0" to="-68280085#3" type="moto_motorcycle"/>
    <trip id="moto14" depart="5.94" departLane="best" from="211455039" to="-131655864" type="moto_motorcycle"/>
    <trip id="moto15" depart="6.37" departLane="best" from="445750758#0" to="73532302#3" type="moto_motorcycle"/>
    <trip id="moto16" depart="6.79" departLane="best" from="-430128410" to="430127946" type="moto_motorcycle"/>
    <trip id="moto17" depart="7.22" departLane="best" from="370514754" to="230784087#3" type="moto_motorcycle"/>
    <trip id="moto18" depart="7.64" departLane="best" from="323053803" to="27639629#1" type="moto_motorcycle"/>
    <trip id="moto19" depart="8.07" departLane="best" from="39078043#1" to="15808057#0" type="moto_motorcycle"/>
    <trip id="moto20" depart="8.49" departLane="best" from="124962725#1" to="231350478#0" type="moto_motorcycle"/>
    <trip id="moto21" depart="8.91" departLane="best" from="211556987#6" to="369467063#0" type="moto_motorcycle"/>
    <trip id="moto22" depart="9.34" departLane="best" from="37916357#1" to="252790570#4" type="moto_motorcycle"/>
    <trip id="moto23" depart="9.76" departLane="best" from="230395575#2" to="-467061961" type="moto_motorcycle"/>
    <trip id="moto24" depart="10.19" departLane="best" from="426506692#0" to="-426505719#0" type="moto_motorcycle"/>
    <trip id="moto25" depart="10.61" departLane="best" from="427243032#5" to="425942465#1" type="moto_motorcycle"/>
    <trip id="moto26" depart="11.04" departLane="best" from="423987908#2" to="426696431#3" type="moto_motorcycle"/>
    <trip id="moto27" depart="11.46" departLane="best" from="131655875#1" to="39081428#1" type="moto_motorcycle"/>
    <trip id="moto28" depart="11.89" departLane="best" from="-192583208#3" to="39014084#1" type="moto_motorcycle"/>
    <trip id="moto29" depart="12.31" departLane="best" from="-450686064" to="-27639606#1" type="moto_motorcycle"/>
    <trip id="moto30" depart="12.74" departLane="best" from="9931242#0" to="186496570#0" type="moto_motorcycle"/>
    <trip id="moto31" depart="13.16" departLane="best" from="27029985" to="27030026#0" type="moto_motorcycle"/>
    <trip id="moto32" depart="13.58" departLane="best" from="-430127811" to="430115790" type="moto_motorcycle"/>
    <trip id="moto33" depart="14.01" departLane="best" from="133333369#0" to="465984315#2" type="moto_motorcycle"/>
    <trip id="moto34" depart="14.43" departLane="best" from="39046004#0" to="39046005#5" type="moto_motorcycle"/>
    <trip id="moto35" depart="14.86" departLane="best" from="27668372#0" to="261785599#1" type="moto_motorcycle"/>
    <trip id="moto36" depart="15.28" departLane="best" from="39048456" to="-38841784#2" type="moto_motorcycle"/>
    <trip id="moto37" depart="15.71" departLane="best" from="448209067" to="27030143#1" type="moto_motorcycle"/>
    <trip id="moto38" depart="16.13" departLane="best" from="59515637#0" to="265227053#7" type="moto_motorcycle"/>
    <trip id="moto39" depart="16.56" departLane="best" from="-27611587" to="38631693#0" type="moto_motorcycle"/>
    <trip id="moto40" depart="16.98" departLane="best" from="252790570#0" to="244936623" type="moto_motorcycle"/>
    <trip id="moto41" depart="17.40" departLane="best" from="131628104#2" to="39120549#1" type="moto_motorcycle"/>
    <trip id="moto42" depart="17.83" departLane="best" from="425691414#2" to="-22999960#0" type="moto_motorcycle"/>
    <trip id="moto43" depart="18.25" departLane="best" from="418365018#0" to="418365026#1" type="moto_motorcycle"/>
    <trip id="moto44" depart="18.68" departLane="best" from="132236347#4" to="39120533#1" type="moto_motorcycle"/>
    <trip id="moto45" depart="19.10" departLane="best" from="-635718958#1" to="212554514#0" type="moto_motorcycle"/>
    <trip id="moto46" depart="19.53" departLane="best" from="78171837#1" to="39049641#0" type="moto_motorcycle"/>
    <trip id="moto47" depart="19.95" departLane="best" from="427243118" to="578266073#1" type="moto_motorcycle"/>
    <trip id="moto48" depart="20.38" departLane="best" from="-430128408" to="-251629009#1" type="moto_motorcycle"/>
    <trip id="moto49" depart="20.80" departLane="best" from="-330594194" to="471622246" type="moto_motorcycle"/>
    <trip id="moto50" depart="21.23" departLane="best" from="38508529" to="425926581#0" type="moto_motorcycle"/>
    <trip id="moto51" depart="21.65" departLane="best" from="627182616#10" to="439894871" type="moto_motorcycle"/>
    <trip id="moto52" depart="22.07" departLane="best" from="430128415#0" to="245893027" type="moto_motorcycle"/>
    <trip id="moto53" depart="22.50" departLane="best" from="-128511299" to="447117762#2" type="moto_motorcycle"/>
    <trip id="moto54" depart="22.92" departLane="best" from="-39053434#0" to="-39046625#7" type="moto_motorcycle"/>
    <trip id="moto55" depart="23.35" departLane="best" from="235497120" to="231281381#2" type="moto_motorcycle"/>
    <trip id="moto56" depart="23.77" departLane="best" from="38738786" to="27030139#0" type="moto_motorcycle"/>
    <trip id="moto57" depart="24.20" departLane="best" from="430127813#0" to="72767342" type="moto_motorcycle"/>
    <trip id="moto58" depart="24.62" departLane="best" from="545465138#1" to="448213345#0" type="moto_motorcycle"/>
    <trip id="moto59" depart="25.05" departLane="best" from="430126619#0" to="-672784703#0" type="moto_motorcycle"/>
    <trip id="moto60" depart="25.47" departLane="best" from="39082313#3" to="430128044" type="moto_motorcycle"/>
    <trip id="moto61" depart="25.89" departLane="best" from="424211549#1" to="426510606" type="moto_motorcycle"/>
    <trip id="moto62" depart="26.32" departLane="best" from="132236347#2" to="377396455#1" type="moto_motorcycle"/>
    <trip id="moto63" depart="26.74" departLane="best" from="-27030032#0" to="-278992352#3" type="moto_motorcycle"/>
    <trip id="moto64" depart="27.17" departLane="best" from="38630330#2" to="-622484037" type="moto_motorcycle"/>
    <trip id="moto65" depart="27.59" departLane="best" from="430114472#0" to="211060857#0" type="moto_motorcycle"/>
    <trip id="moto66" depart="28.02" departLane="best" from="172433904#3" to="27668192#1" type="moto_motorcycle"/>
    <trip id="moto67" depart="28.44" departLane="best" from="-39049597#1" to="134462241#0" type="moto_motorcycle"/>
    <trip id="moto68" depart="28.87" departLane="best" from="430114472#0" to="310454394" type="moto_motorcycle"/>
    <trip id="moto69" depart="29.29" departLane="best" from="-37909827#3" to="136048535" type="moto_motorcycle"/>
    <trip id="moto70" depart="29.72" departLane="best" from="424630848" to="425457913#1" type="moto_motorcycle"/>
    <trip id="moto71" depart="30.14" departLane="best" from="211061213#0" to="39117744#5" type="moto_motorcycle"/>
    <trip id="moto72" depart="30.56" departLane="best" from="16651445#1" to="22999960#1" type="moto_motorcycle"/>
    <trip id="moto73" depart="30.99" departLane="best" from="141113572#0" to="-255818924#16" type="moto_motorcycle"/>
    <trip id="moto74" depart="31.41" departLane="best" from="56394526#2" to="38738777#6" type="moto_motorcycle"/>
    <trip id="moto75" depart="31.84" departLane="best" from="-38709146" to="-431548664#0" type="moto_motorcycle"/>
    <trip id="moto76" depart="32.26" departLane="best" from="38631710" to="-38508521" type="moto_motorcycle"/>
    <trip id="moto77" depart="32.69" departLane="best" from="587922690#20" to="426505724#1" type="moto_motorcycle"/>
    <trip id="moto78" depart="33.11" departLane="best" from="39014083" to="-172747396#1" type="moto_motorcycle"/>
    <trip id="moto79" depart="33.54" departLane="best" from="38631715#3" to="-191510467" type="moto_motorcycle"/>
    <trip id="moto81" depart="34.38" departLane="best" from="-60685694#0" to="134463317#1" type="moto_motorcycle"/>
    <trip id="moto82" depart="34.81" departLane="best" from="39048435#1" to="-39049663#0" type="moto_motorcycle"/>
    <trip id="moto83" depart="35.23" departLane="best" from="424630828#0" to="-128511288#1" type="moto_motorcycle"/>
    <trip id="moto84" depart="35.66" departLane="best" from="-37538137#1" to="79765662" type="moto_motorcycle"/>
    <trip id="moto85" depart="36.08" departLane="best" from="-27030022" to="8579186#1" type="moto_motorcycle"/>
    <trip id="moto86" depart="36.51" departLane="best" from="8579169#2" to="22999717" type="moto_motorcycle"/>
    <trip id="moto87" depart="36.93" departLane="best" from="37916511#4" to="279753892#0" type="moto_motorcycle"/>
    <trip id="moto88" depart="37.36" departLane="best" from="-430128411" to="-128508551#1" type="moto_motorcycle"/>
    <trip id="moto89" depart="37.78" departLane="best" from="-172868864#0" to="154421036" type="moto_motorcycle"/>
    <trip id="moto91" depart="38.63" departLane="best" from="171848999#1" to="426505718#2" type="moto_motorcycle"/>
    <trip id="moto92" depart="39.05" departLane="best" from="426607367" to="517698789" type="moto_motorcycle"/>
    <trip id="moto93" depart="39.48" departLane="best" from="-503239702" to="39077901#0" type="moto_motorcycle"/>
    <trip id="moto94" depart="39.90" departLane="best" from="235497120" to="454557950" type="moto_motorcycle"/>
    <trip id="moto96" depart="40.75" departLane="best" from="-424212161" to="424217266#5" type="moto_motorcycle"/>
    <trip id="moto97" depart="41.18" departLane="best" from="171847607#1" to="38360276#4" type="moto_motorcycle"/>
    <trip id="moto98" depart="41.60" departLane="best" from="-248091972" to="-131655864" type="moto_motorcycle"/>
    <trip id="moto100" depart="42.45" departLane="best" from="75329379" to="-237470811#3" type="moto_motorcycle"/>
    <trip id="moto101" depart="42.88" departLane="best" from="-27667429#1" to="384104721" type="moto_motorcycle"/>
    <trip id="moto102" depart="43.30" departLane="best" from="426510607" to="424210758" type="moto_motorcycle"/>
    <trip id="moto103" depart="43.72" departLane="best" from="123374521#0" to="19796858#2" type="moto_motorcycle"/>
    <trip id="moto104" depart="44.15" departLane="best" from="27639673" to="-426505695#2" type="moto_motorcycle"/>
    <trip id="moto105" depart="44.57" departLane="best" from="75329374" to="-39049620#1" type="moto_motorcycle"/>
    <trip id="moto106" depart="45.00" departLane="best" from="-27667342#0" to="426696421#2" type="moto_motorcycle"/>
    <trip id="moto107" depart="45.42" departLane="best" from="184745785#1" to="426505695#2" type="moto_motorcycle"/>
    <trip id="moto108" depart="45.85" departLane="best" from="24587518#1" to="27644487#1" type="moto_motorcycle"/>
    <trip id="moto109" depart="46.27" departLane="best" from="230628519#7" to="230628533#1" type="moto_motorcycle"/>
    <trip id="moto110" depart="46.70" departLane="best" from="229480983#1" to="401760472" type="moto_motorcycle"/>
    <trip id="moto111" depart="47.12" departLane="best" from="-27030005#1" to="-339103685#0" type="moto_motorcycle"/>
    <trip id="moto112" depart="47.54" departLane="best" from="277478974#0" to="185783795#5" type="moto_motorcycle"/>
    <trip id="moto113" depart="47.97" departLane="best" from="-427243046" to="38738764#0" type="moto_motorcycle"/>
    <trip id="moto114" depart="48.39" departLane="best" from="39046429" to="39046000" type="moto_motorcycle"/>
    <trip id="moto115" depart="48.82" departLane="best" from="407757111#4" to="426603437#8" type="moto_motorcycle"/>
    <trip id="moto116" depart="49.24" departLane="best" from="272898745" to="-37916375#1" type="moto_motorcycle"/>
    <trip id="moto117" depart="49.67" departLane="best" from="427253372" to="205998238" type="moto_motorcycle"/>
    <trip id="moto118" depart="50.09" departLane="best" from="427018862#2" to="239019906" type="moto_motorcycle"/>
    <trip id="moto119" depart="50.52" departLane="best" from="-255818924#5" to="188303695#1" type="moto_motorcycle"/>
    <trip id="moto120" depart="50.94" departLane="best" from="-503239707" to="231404620#3" type="moto_motorcycle"/>
    <trip id="moto121" depart="51.37" departLane="best" from="39014086" to="-39048457#0" type="moto_motorcycle"/>
    <trip id="moto122" depart="51.79" departLane="best" from="-430129437#1" to="39081434#1" type="moto_motorcycle"/>
    <trip id="moto123" depart="52.21" departLane="best" from="-27667565" to="-337865808#1" type="moto_motorcycle"/>
    <trip id="moto124" depart="52.64" departLane="best" from="127683181" to="-39053414" type="moto_motorcycle"/>
    <trip id="moto125" depart="53.06" departLane="best" from="423496969" to="152424414#3" type="moto_motorcycle"/>
    <trip id="moto126" depart="53.49" departLane="best" from="124962748#3" to="27639629#0" type="moto_motorcycle"/>
    <trip id="moto127" depart="53.91" departLane="best" from="-430121224" to="430126367" type="moto_motorcycle"/>
    <trip id="moto128" depart="54.34" departLane="best" from="430128040" to="-244936681" type="moto_motorcycle"/>
    <trip id="moto129" depart="54.76" departLane="best" from="27660275#2" to="-27474550" type="moto_motorcycle"/>
    <trip id="moto130" depart="55.19" departLane="best" from="39081849#2" to="-547305685#3" type="moto_motorcycle"/>
    <trip id="moto131" depart="55.61" departLane="best" from="19796852#0" to="424217266#4" type="moto_motorcycle"/>
    <trip id="moto132" depart="56.03" departLane="best" from="373578703" to="369907161#3" type="moto_motorcycle"/>
    <trip id="moto133" depart="56.46" departLane="best" from="37916388#2" to="128511291#0" type="moto_motorcycle"/>
    <trip id="moto134" depart="56.88" departLane="best" from="39048504#0" to="59515646#0" type="moto_motorcycle"/>
    <trip id="moto135" depart="57.31" departLane="best" from="-278916129#2" to="-577924483#2" type="moto_motorcycle"/>
    <trip id="moto136" depart="57.73" departLane="best" from="-34439046#0" to="16238438#0" type="moto_motorcycle"/>
    <trip id="moto137" depart="58.16" departLane="best" from="62263982#1" to="427400799#2" type="moto_motorcycle"/>
    <trip id="moto138" depart="58.58" departLane="best" from="39046616#0" to="556750747#4" type="moto_motorcycle"/>
    <trip id="moto139" depart="59.01" departLane="best" from="312280064#0" to="524255618#0" type="moto_motorcycle"/>
    <trip id="moto140" depart="59.43" departLane="best" from="39081434#2" to="424630814#1" type="moto_motorcycle"/>
    <trip id="moto141" depart="59.86" departLane="best" from="-436333209" to="-236899704" type="moto_motorcycle"/>
    <trip id="moto142" depart="60.28" departLane="best" from="27639673" to="436333191#2" type="moto_motorcycle"/>
    <trip id="moto143" depart="60.70" departLane="best" from="211455038" to="151515563#2" type="moto_motorcycle"/>
    <trip id="moto144" depart="61.13" departLane="best" from="-430129437#1" to="128515110#1" type="moto_motorcycle"/>
    <trip id="moto145" depart="61.55" departLane="best" from="27474566#0" to="436333197#1" type="moto_motorcycle"/>
    <trip id="moto146" depart="61.98" departLane="best" from="265227053#7" to="450833655" type="moto_motorcycle"/>
    <trip id="moto147" depart="62.40" departLane="best" from="490216505" to="424211549#3" type="moto_motorcycle"/>
    <trip id="moto148" depart="62.83" departLane="best" from="424211900#3" to="-426605969" type="moto_motorcycle"/>
    <trip id="moto149" depart="63.25" departLane="best" from="252790570#0" to="235497128#0" type="moto_motorcycle"/>
    <trip id="moto150" depart="63.68" departLane="best" from="196799730#3" to="-39077901#0" type="moto_motorcycle"/>
    <trip id="moto151" depart="64.10" departLane="best" from="-53801348" to="27030152#1" type="moto_motorcycle"/>
    <trip id="moto152" depart="64.52" departLane="best" from="424217266#4" to="450878338#1" type="moto_motorcycle"/>
    <trip id="moto153" depart="64.95" departLane="best" from="428102023#1" to="436325254" type="moto_motorcycle"/>
    <trip id="moto154" depart="65.37" departLane="best" from="-39120532#2" to="352366651#1" type="moto_motorcycle"/>
    <trip id="moto155" depart="65.80" departLane="best" from="310454388#0" to="-131628115#0" type="moto_motorcycle"/>
    <trip id="moto156" depart="66.22" departLane="best" from="128515109#1" to="431548669" type="moto_motorcycle"/>
    <trip id="moto157" depart="66.65" departLane="best" from="278916128#1" to="-425930861#2" type="moto_motorcycle"/>
    <trip id="moto158" depart="67.07" departLane="best" from="46927934" to="8579488#2" type="moto_motorcycle"/>
    <trip id="moto159" depart="67.50" departLane="best" from="134363701" to="491421502" type="moto_motorcycle"/>
    <trip id="moto160" depart="67.92" departLane="best" from="157188563#2" to="-430118181#0" type="moto_motorcycle"/>
    <trip id="moto161" depart="68.35" departLane="best" from="-424212159" to="205861332" type="moto_motorcycle"/>
    <trip id="moto162" depart="68.77" departLane="best" from="454562735" to="-8579414#1" type="moto_motorcycle"/>
    <trip id="moto163" depart="69.19" departLane="best" from="37916527#3" to="128515118#3" type="moto_motorcycle"/>
    <trip id="moto164" depart="69.62" departLane="best" from="39077899#2" to="-38360276#0" type="moto_motorcycle"/>
    <trip id="moto165" depart="70.04" departLane="best" from="-672784703#3" to="-211455035#4" type="moto_motorcycle"/>
    <trip id="moto166" depart="70.47" departLane="best" from="-465895356#1" to="-56394526#2" type="moto_motorcycle"/>
    <trip id="moto167" depart="70.89" departLane="best" from="172868747#2" to="438470923" type="moto_motorcycle"/>
    <trip id="moto168" depart="71.32" departLane="best" from="59515646#6" to="-401300455#9" type="moto_motorcycle"/>
    <trip id="moto169" depart="71.74" departLane="best" from="-426510609" to="229480219#1" type="moto_motorcycle"/>
    <trip id="moto170" depart="72.17" departLane="best" from="244936665" to="-445750758#0" type="moto_motorcycle"/>
    <trip id="moto171" depart="72.59" departLane="best" from="-430128413" to="245893027" type="moto_motorcycle"/>
    <trip id="moto172" depart="73.01" departLane="best" from="252274187#0" to="409861831#1" type="moto_motorcycle"/>
    <trip id="moto173" depart="73.44" departLane="best" from="424630860#6" to="244936623" type="moto_motorcycle"/>
    <trip id="moto174" depart="73.86" departLane="best" from="195270960#0" to="407753019#2" type="moto_motorcycle"/>
    <trip id="moto175" depart="74.29" departLane="best" from="134462241#1" to="39077812#1" type="moto_motorcycle"/>
    <trip id="moto176" depart="74.71" departLane="best" from="661786906#3" to="27639569" type="moto_motorcycle"/>
    <trip id="moto177" depart="75.14" departLane="best" from="426696431#5" to="27660311" type="moto_motorcycle"/>
    <trip id="moto178" depart="75.56" departLane="best" from="-184855992#1" to="-39056467" type="moto_motorcycle"/>
    <trip id="moto179" depart="75.99" departLane="best" from="423976021#8" to="-418365019" type="moto_motorcycle"/>
    <trip id="moto180" depart="76.41" departLane="best" from="-198727279#3" to="430127812" type="moto_motorcycle"/>
    <trip id="moto181" depart="76.84" departLane="best" from="37916629#1" to="547177360#1" type="moto_motorcycle"/>
    <trip id="moto182" depart="77.26" departLane="best" from="425926573#2" to="454570245" type="moto_motorcycle"/>
    <trip id="moto183" depart="77.68" departLane="best" from="427400761" to="516734826" type="moto_motorcycle"/>
    <trip id="moto184" depart="78.11" departLane="best" from="-427243102#1" to="-426927700" type="moto_motorcycle"/>
    <trip id="moto185" depart="78.53" departLane="best" from="269678077#1" to="-277478974#0" type="moto_motorcycle"/>
    <trip id="moto186" depart="78.96" departLane="best" from="-418365019" to="632976630#2" type="moto_motorcycle"/>
    <trip id="moto187" depart="79.38" departLane="best" from="426505734#4" to="329262587#0" type="moto_motorcycle"/>
    <trip id="moto188" depart="79.81" departLane="best" from="-171848926#0" to="39077897#1" type="moto_motorcycle"/>
    <trip id="moto189" depart="80.23" departLane="best" from="424421106" to="238318430#3" type="moto_motorcycle"/>
    <trip id="moto190" depart="80.66" departLane="best" from="171847607#0" to="597462033" type="moto_motorcycle"/>
    <trip id="moto191" depart="81.08" departLane="best" from="27474565" to="325009422#1" type="moto_motorcycle"/>
    <trip id="moto192" depart="81.51" departLane="best" from="430114472#0" to="-430126618" type="moto_motorcycle"/>
    <trip id="moto193" depart="81.93" departLane="best" from="-39014080#2" to="39048531#2" type="moto_motorcycle"/>
    <trip id="moto194" depart="82.35" departLane="best" from="323059305#1" to="436333207" type="moto_motorcycle"/>
    <trip id="moto195" depart="82.78" departLane="best" from="27029997#1" to="128194053#3" type="moto_motorcycle"/>
    <trip id="moto197" depart="83.63" departLane="best" from="230628521#0" to="-427243117#1" type="moto_motorcycle"/>
    <trip id="moto198" depart="84.05" departLane="best" from="-430128168" to="27030077#2" type="moto_motorcycle"/>
    <trip id="moto199" depart="84.48" departLane="best" from="-27030008#1" to="211455032#1" type="moto_motorcycle"/>
    <trip id="moto200" depart="84.90" departLane="best" from="-430127810" to="-430118176#0" type="moto_motorcycle"/>
    <trip id="moto201" depart="85.33" departLane="best" from="427243088#4" to="-427400681#3" type="moto_motorcycle"/>
    <trip id="moto202" depart="85.75" departLane="best" from="37916464#2" to="128508557" type="moto_motorcycle"/>
    <trip id="moto203" depart="86.17" departLane="best" from="278916131" to="425923721#1" type="moto_motorcycle"/>
    <trip id="moto204" depart="86.60" departLane="best" from="426504424" to="359790125#3" type="moto_motorcycle"/>
    <trip id="moto205" depart="87.02" departLane="best" from="424211549#7" to="231355591#0" type="moto_motorcycle"/>
    <trip id="moto206" depart="87.45" departLane="best" from="-27639647#0" to="-202867536" type="moto_motorcycle"/>
    <trip id="moto207" depart="87.87" departLane="best" from="39053432#1" to="37538257" type="moto_motorcycle"/>
    <trip id="moto208" depart="88.30" departLane="best" from="672784703#4" to="131655863" type="moto_motorcycle"/>
    <trip id="moto209" depart="88.72" departLane="best" from="454557950" to="430127811" type="moto_motorcycle"/>
    <trip id="moto210" depart="89.15" departLane="best" from="667037976#5" to="246848876#3" type="moto_motorcycle"/>
    <trip id="moto211" depart="89.57" departLane="best" from="-27030089#7" to="38738605#5" type="moto_motorcycle"/>
    <trip id="moto212" depart="90.00" departLane="best" from="646564634" to="27639666" type="moto_motorcycle"/>
    <trip id="moto213" depart="90.42" departLane="best" from="-27639592#0" to="560185740#3" type="moto_motorcycle"/>
    <trip id="moto214" depart="90.84" departLane="best" from="237470831#1" to="8103480#0" type="moto_motorcycle"/>
    <trip id="moto216" depart="91.69" departLane="best" from="231284702#1" to="39117743#2" type="moto_motorcycle"/>
    <trip id="moto217" depart="92.12" departLane="best" from="27030155" to="-622465138" type="moto_motorcycle"/>
    <trip id="moto218" depart="92.54" departLane="best" from="369907197#6" to="337854406#2" type="moto_motorcycle"/>
    <trip id="moto219" depart="92.97" departLane="best" from="27030005#0" to="430123093" type="moto_motorcycle"/>
    <trip id="moto220" depart="93.39" departLane="best" from="-105411943" to="430127942" type="moto_motorcycle"/>
    <trip id="moto221" depart="93.82" departLane="best" from="-427243074" to="-33968268" type="moto_motorcycle"/>
    <trip id="moto222" depart="94.24" departLane="best" from="430125562" to="430127947" type="moto_motorcycle"/>
    <trip id="moto223" depart="94.66" departLane="best" from="124962832" to="172308673#3" type="moto_motorcycle"/>
    <trip id="moto224" depart="95.09" departLane="best" from="450833653#1" to="-436325258" type="moto_motorcycle"/>
    <trip id="moto225" depart="95.51" departLane="best" from="-430126494#1" to="27030148#2" type="moto_motorcycle"/>
    <trip id="moto226" depart="95.94" departLane="best" from="230628530#7" to="230784024" type="moto_motorcycle"/>
    <trip id="moto227" depart="96.36" departLane="best" from="39081854" to="427400859#1" type="moto_motorcycle"/>
    <trip id="moto228" depart="96.79" departLane="best" from="141294961#0" to="430127947" type="moto_motorcycle"/>
    <trip id="moto229" depart="97.21" departLane="best" from="-438930172" to="-27030031#3" type="moto_motorcycle"/>
    <trip id="moto230" depart="97.64" departLane="best" from="-430119211" to="212353007" type="moto_motorcycle"/>
    <trip id="moto231" depart="98.06" departLane="best" from="448209069" to="430128167" type="moto_motorcycle"/>
    <trip id="moto232" depart="98.49" departLane="best" from="37916549" to="-22999494" type="moto_motorcycle"/>
    <trip id="moto235" depart="99.76" departLane="best" from="124962724#0" to="418365025#3" type="moto_motorcycle"/>
    <trip id="moto236" depart="100.18" departLane="best" from="8579426" to="72921505" type="moto_motorcycle"/>
    <trip id="moto237" depart="100.61" departLane="best" from="-27030032#2" to="547305684#2" type="moto_motorcycle"/>
    <trip id="moto238" depart="101.03" departLane="best" from="231281375#4" to="-73532302#0" type="moto_motorcycle"/>
    <trip id="moto239" depart="101.46" departLane="best" from="185627527#0" to="-221635258#1" type="moto_motorcycle"/>
    <trip id="moto240" depart="101.88" departLane="best" from="255818924#5" to="4567105" type="moto_motorcycle"/>
    <trip id="moto241" depart="102.31" departLane="best" from="230628808#0" to="424389523#3" type="moto_motorcycle"/>
    <trip id="moto242" depart="102.73" departLane="best" from="587918135#1" to="401300455#3" type="moto_motorcycle"/>
    <trip id="moto243" depart="103.15" departLane="best" from="-430119365" to="245893027" type="moto_motorcycle"/>
    <trip id="moto244" depart="103.58" departLane="best" from="-448213346" to="39117764#0" type="moto_motorcycle"/>
    <trip id="moto245" depart="104.00" departLane="best" from="172297072" to="229480983#1" type="moto_motorcycle"/>
    <trip id="moto246" depart="104.43" departLane="best" from="278916129#1" to="262851665#0" type="moto_motorcycle"/>
    <trip id="moto247" depart="104.85" departLane="best" from="425942439#0" to="-427243088#2" type="moto_motorcycle"/>
    <trip id="moto248" depart="105.28" departLane="best" from="251629009#0" to="38709146" type="moto_motorcycle"/>
    <trip id="moto249" depart="105.70" departLane="best" from="-547177360#0" to="427400778#1" type="moto_motorcycle"/>
    <trip id="moto250" depart="106.13" departLane="best" from="128515118#1-AddedOnRampEdge" to="-128519864" type="moto_motorcycle"/>
    <trip id="moto251" depart="106.55" departLane="best" from="196799729#0" to="425926573#0" type="moto_motorcycle"/>
    <trip id="moto252" depart="106.98" departLane="best" from="28807488#0" to="450506569" type="moto_motorcycle"/>
    <trip id="moto253" depart="107.40" departLane="best" from="-27667573" to="255818924#14" type="moto_motorcycle"/>
    <trip id="moto254" depart="107.82" departLane="best" from="334434102#0" to="16975658" type="moto_motorcycle"/>
    <trip id="moto255" depart="108.25" departLane="best" from="427018761#5" to="370514752#3" type="moto_motorcycle"/>
    <trip id="moto256" depart="108.67" departLane="best" from="128508553" to="34436961" type="moto_motorcycle"/>
    <trip id="moto257" depart="109.10" departLane="best" from="172728794" to="229739161#1" type="moto_motorcycle"/>
    <trip id="moto258" depart="109.52" departLane="best" from="27030123#5" to="207174087" type="moto_motorcycle"/>
    <trip id="moto259" depart="109.95" departLane="best" from="79770592" to="79770595" type="moto_motorcycle"/>
    <trip id="moto260" depart="110.37" departLane="best" from="425923715#0" to="255838497#4" type="moto_motorcycle"/>
    <trip id="moto261" depart="110.80" departLane="best" from="-27644490#0" to="27639582#1" type="moto_motorcycle"/>
    <trip id="moto262" depart="111.22" departLane="best" from="439630281" to="184846230#0" type="moto_motorcycle"/>
    <trip id="moto264" depart="112.07" departLane="best" from="131655871" to="128511294#2" type="moto_motorcycle"/>
    <trip id="moto265" depart="112.49" departLane="best" from="-430128169" to="133333371#1" type="moto_motorcycle"/>
    <trip id="moto266" depart="112.92" departLane="best" from="37916375#2" to="435973648" type="moto_motorcycle"/>