<?xml version="1.0" encoding="UTF-8"?>
<!-- generated on 2019-05-01 11:51:29.676104 by $Id$ via randomTrips.py
  options: 
-->
<routes xmlns:xsi="http://www.w3.org/2001/XMLSchema-instance" xsi:noNamespaceSchemaLocation="http://sumo.dlr.de/xsd/routes_file.xsd">
    <vType id="truck_truck" vClass="truck">
    </vType>
    <trip id="truck0" depart="0.00" departLane="best" from="37538131#3" to="-172745429#3" type="truck_truck"/>
    <trip id="truck1" depart="0.59" departLane="best" from="-638729328#0" to="-53826080#0" type="truck_truck"/>
    <trip id="truck2" depart="1.19" departLane="best" from="405489977#1" to="39056456#0" type="truck_truck"/>
    <trip id="truck3" depart="1.78" departLane="best" from="476994770" to="-27644487#2" type="truck_truck"/>
    <trip id="truck4" depart="2.38" departLane="best" from="229480219#0" to="-185627527#0" type="truck_truck"/>
    <trip id="truck5" depart="2.97" departLane="best" from="-431546440" to="27587520" type="truck_truck"/>
    <trip id="truck7" depart="4.16" departLane="best" from="37916421#5" to="279753892#0" type="truck_truck"/>
    <trip id="truck8" depart="4.75" departLane="best" from="-431548666#1" to="369907195#2" type="truck_truck"/>
    <trip id="truck9" depart="5.35" departLane="best" from="426696442" to="-131628108#0" type="truck_truck"/>
    <trip id="truck10" depart="5.94" departLane="best" from="426696411" to="39117758#3" type="truck_truck"/>
    <trip id="truck11" depart="6.54" departLane="best" from="157188563#6" to="-39117744#0" type="truck_truck"/>
    <trip id="truck12" depart="7.13" departLane="best" from="661786906#0" to="183853700#1" type="truck_truck"/>
    <trip id="truck13" depart="7.73" departLane="best" from="-283003800" to="-294108450#1" type="truck_truck"/>
    <trip id="truck15" depart="8.91" departLane="best" from="426696421#4" to="424222641" type="truck_truck"/>
    <trip id="truck16" depart="9.51" departLane="best" from="27030139#4" to="72767330" type="truck_truck"/>
    <trip id="truck17" depart="10.10" departLane="best" from="183853693#2" to="293597698#3" type="truck_truck"/>
    <trip id="truck18" depart="10.70" departLane="best" from="427400681#3" to="37916524#2" type="truck_truck"/>
    <trip id="truck19" depart="11.29" departLane="best" from="39053421#1" to="-230784541" type="truck_truck"/>
    <trip id="truck20" depart="11.89" departLane="best" from="-436646700" to="14519876#1" type="truck_truck"/>
    <trip id="truck21" depart="12.48" departLane="best" from="-27639631#0" to="-60685694#2" type="truck_truck"/>
    <trip id="truck22" depart="13.07" departLane="best" from="-33968289" to="133125089" type="truck_truck"/>
    <trip id="truck24" depart="14.26" departLane="best" from="172868866" to="-454557952" type="truck_truck"/>
    <trip id="truck25" depart="14.86" departLane="best" from="37916372#0" to="37909863#0" type="truck_truck"/>
    <trip id="truck26" depart="15.45" departLane="best" from="-424630842" to="424217366#3" type="truck_truck"/>
    <trip id="truck28" depart="16.64" departLane="best" from="8578569#1" to="38738605#10" type="truck_truck"/>
    <trip id="truck29" depart="17.23" departLane="best" from="27639627#0" to="39080244#4" type="truck_truck"/>
    <trip id="truck30" depart="17.83" departLane="best" from="430126617" to="426603437#6" type="truck_truck"/>
    <trip id="truck31" depart="18.42" departLane="best" from="-438225728" to="-192583210#1" type="truck_truck"/>
    <trip id="truck32" depart="19.02" departLane="best" from="131655872" to="128675561#0" type="truck_truck"/>
    <trip id="truck33" depart="19.61" departLane="best" from="-430128044" to="589515206#10" type="truck_truck"/>
    <trip id="truck34" depart="20.21" departLane="best" from="454570251" to="171847846#5" type="truck_truck"/>
    <trip id="truck35" depart="20.80" departLane="best" from="37916531#1" to="230628805#4" type="truck_truck"/>
    <trip id="truck36" depart="21.40" departLane="best" from="524255618#0" to="246307536#0" type="truck_truck"/>
    <trip id="truck37" depart="21.99" departLane="best" from="-560269842#1" to="-79162696" type="truck_truck"/>
    <trip id="truck38" depart="22.58" departLane="best" from="27639664#1" to="128511294#0" type="truck_truck"/>
    <trip id="truck39" depart="23.18" departLane="best" from="284347438#0" to="490216495#1" type="truck_truck"/>
    <trip id="truck41" depart="24.37" departLane="best" from="85796595" to="27639577#1" type="truck_truck"/>
    <trip id="truck43" depart="25.56" departLane="best" from="-37808173#2" to="38508529" type="truck_truck"/>
    <trip id="truck44" depart="26.15" departLane="best" from="426505724#1" to="235497117#0" type="truck_truck"/>
    <trip id="truck45" depart="26.74" departLane="best" from="-27030008#1" to="229480983#4" type="truck_truck"/>
    <trip id="truck46" depart="27.34" departLane="best" from="8579499" to="27666905#2" type="truck_truck"/>
    <trip id="truck47" depart="27.93" departLane="best" from="72767342-AddedOnRampEdge" to="448209066" type="truck_truck"/>
    <trip id="truck48" depart="28.53" departLane="best" from="-14521675#1" to="424210754#1" type="truck_truck"/>
    <trip id="truck49" depart="29.12" departLane="best" from="39014083" to="27733787#6" type="truck_truck"/>
    <trip id="truck50" depart="29.72" departLane="best" from="-565483609" to="38738608" type="truck_truck"/>
    <trip id="truck51" depart="30.31" departLane="best" from="-37909859#1" to="237455942#1" type="truck_truck"/>
    <trip id="truck52" depart="30.90" departLane="best" from="231350482#3" to="628293209#0" type="truck_truck"/>
    <trip id="truck53" depart="31.50" departLane="best" from="454570246" to="128511297#0" type="truck_truck"/>
    <trip id="truck54" depart="32.09" departLane="best" from="246708378" to="-427243088#1" type="truck_truck"/>
    <trip id="truck55" depart="32.69" departLane="best" from="519490880" to="454561009#1" type="truck_truck"/>
    <trip id="truck56" depart="33.28" departLane="best" from="337865808#2" to="-39081862#0" type="truck_truck"/>
    <trip id="truck57" depart="33.88" departLane="best" from="424419378#3" to="277478975" type="truck_truck"/>
    <trip id="truck58" depart="34.47" departLane="best" from="425925650" to="27667495#1" type="truck_truck"/>
    <trip id="truck59" depart="35.06" departLane="best" from="-123103598#3" to="172744182#0" type="truck_truck"/>
    <trip id="truck60" depart="35.66" departLane="best" from="-172308673#0" to="560269842#1" type="truck_truck"/>
    <trip id="truck61" depart="36.25" departLane="best" from="454698074" to="430128620" type="truck_truck"/>
    <trip id="truck62" depart="36.85" departLane="best" from="128676785" to="-246307536#0" type="truck_truck"/>
    <trip id="truck63" depart="37.44" departLane="best" from="454680854#1" to="597462023" type="truck_truck"/>
    <trip id="truck64" depart="38.04" departLane="best" from="-27660302#3" to="27030002#1" type="truck_truck"/>
    <trip id="truck65" depart="38.63" departLane="best" from="-27030123#3" to="426247930#0" type="truck_truck"/>
    <trip id="truck66" depart="39.22" departLane="best" from="424630792" to="-39046009" type="truck_truck"/>
    <trip id="truck67" depart="39.82" departLane="best" from="237455925#4" to="28807592#6" type="truck_truck"/>
    <trip id="truck68" depart="40.41" departLane="best" from="-560269842#1" to="454576378" type="truck_truck"/>
    <trip id="truck69" depart="41.01" departLane="best" from="229480983#3" to="-467061961" type="truck_truck"/>
    <trip id="truck70" depart="41.60" departLane="best" from="27333547#0" to="424389513#1" type="truck_truck"/>
    <trip id="truck71" depart="42.20" departLane="best" from="-430123093" to="171847101#0" type="truck_truck"/>
    <trip id="truck72" depart="42.79" departLane="best" from="8579414#0" to="39014089#0" type="truck_truck"/>
    <trip id="truck73" depart="43.38" departLane="best" from="230629147#1" to="27639632#0" type="truck_truck"/>
    <trip id="truck74" depart="43.98" departLane="best" from="-38709146" to="-547305685#2" type="truck_truck"/>
    <trip id="truck75" depart="44.57" departLane="best" from="153916351" to="369907161#0" type="truck_truck"/>
    <trip id="truck76" depart="45.17" departLane="best" from="-438470920#1" to="-514557409" type="truck_truck"/>
    <trip id="truck77" depart="45.76" departLane="best" from="-27030143#2" to="38585129#1" type="truck_truck"/>
    <trip id="truck78" depart="46.36" departLane="best" from="-438225727" to="504627721" type="truck_truck"/>
    <trip id="truck79" depart="46.95" departLane="best" from="439628881" to="-27030031#4" type="truck_truck"/>
    <trip id="truck80" depart="47.54" departLane="best" from="-450506569" to="39051669" type="truck_truck"/>
    <trip id="truck81" depart="48.14" departLane="best" from="-430128409" to="-39048488#1" type="truck_truck"/>
    <trip id="truck82" depart="48.73" departLane="best" from="584764530#0" to="337865808#0" type="truck_truck"/>
    <trip id="truck83" depart="49.33" departLane="best" from="237169411" to="426927754#1" type="truck_truck"/>
    <trip id="truck84" depart="49.92" departLane="best" from="426696428#0" to="-430119076" type="truck_truck"/>
    <trip id="truck85" depart="50.52" departLane="best" from="-329057268" to="237455921" type="truck_truck"/>
    <trip id="truck86" depart="51.11" departLane="best" from="229481575#1" to="251867609" type="truck_truck"/>
    <trip id="truck87" depart="51.70" departLane="best" from="39117760#1" to="39053434#0" type="truck_truck"/>
    <trip id="truck89" depart="52.89" departLane="best" from="19797659#0" to="184013932#0" type="truck_truck"/>
    <trip id="truck90" depart="53.49" departLane="best" from="439894868" to="-79770595" type="truck_truck"/>
    <trip id="truck91" depart="54.08" departLane="best" from="-427400712#2" to="244821391#0" type="truck_truck"/>
    <trip id="truck92" depart="54.68" departLane="best" from="229480219#0" to="133333367#4" type="truck_truck"/>
    <trip id="truck93" depart="55.27" departLane="best" from="-490216499#1" to="545465138#2" type="truck_truck"/>
    <trip id="truck94" depart="55.86" departLane="best" from="231281375#0" to="448209709" type="truck_truck"/>
    <trip id="truck95" depart="56.46" departLane="best" from="27639579#4" to="-237455925#0" type="truck_truck"/>
    <trip id="truck96" depart="57.05" departLane="best" from="8579917" to="431548669" type="truck_truck"/>
    <trip id="truck97" depart="57.65" departLane="best" from="71958447#4" to="556750747#8" type="truck_truck"/>
    <trip id="truck99" depart="58.84" departLane="best" from="239019932#1" to="-472258016" type="truck_truck"/>
    <trip id="truck100" depart="59.43" departLane="best" from="19796859#2" to="-246848888#0" type="truck_truck"/>
    <trip id="truck101" depart="60.03" departLane="best" from="183853715#1" to="8148347" type="truck_truck"/>
    <trip id="truck102" depart="60.62" departLane="best" from="-560269842#1" to="426927738#2" type="truck_truck"/>
    <trip id="truck103" depart="61.21" departLane="best" from="231355575#10" to="235695427" type="truck_truck"/>
    <trip id="truck104" depart="61.81" departLane="best" from="661786906#1" to="8579488#2" type="truck_truck"/>
    <trip id="truck105" depart="62.40" departLane="best" from="27639617" to="423976021#6" type="truck_truck"/>
    <trip id="truck106" depart="63.00" departLane="best" from="-39081428#2" to="157188563#9" type="truck_truck"/>
    <trip id="truck107" depart="63.59" departLane="best" from="71958447#1" to="355326291" type="truck_truck"/>
    <trip id="truck108" depart="64.19" departLane="best" from="27474561" to="425846511#0" type="truck_truck"/>
    <trip id="truck109" depart="64.78" departLane="best" from="-248091975" to="359790126" type="truck_truck"/>
    <trip id="truck110" depart="65.37" departLane="best" from="247519635#1" to="438471390#0" type="truck_truck"/>
    <trip id="truck111" depart="65.97" departLane="best" from="-39081888#0" to="661786914#2" type="truck_truck"/>
    <trip id="truck112" depart="66.56" departLane="best" from="-27639632#2" to="-427400867#2" type="truck_truck"/>
    <trip id="truck113" depart="67.16" departLane="best" from="312295510#2" to="39056441#2" type="truck_truck"/>
    <trip id="truck114" depart="67.75" departLane="best" from="-448209065#0" to="-38570166#2" type="truck_truck"/>
    <trip id="truck115" depart="68.35" departLane="best" from="471622252" to="-79159684#1" type="truck_truck"/>
    <trip id="truck116" depart="68.94" departLane="best" from="312295508#0" to="37916533#0" type="truck_truck"/>
    <trip id="truck117" depart="69.53" departLane="best" from="221635258#2" to="359790125#1" type="truck_truck"/>
    <trip id="truck118" depart="70.13" departLane="best" from="265227053#13" to="576954816#2" type="truck_truck"/>
    <trip id="truck119" depart="70.72" departLane="best" from="-430126368#1" to="423497710#0" type="truck_truck"/>
    <trip id="truck120" depart="71.32" departLane="best" from="-450680119" to="230628805#5" type="truck_truck"/>
    <trip id="truck121" depart="71.91" departLane="best" from="38631692#0" to="16257487#2" type="truck_truck"/>
    <trip id="truck122" depart="72.51" departLane="best" from="131655875#0" to="425926581#1" type="truck_truck"/>
    <trip id="truck123" depart="73.10" departLane="best" from="-27238983#2" to="245893027" type="truck_truck"/>
    <trip id="truck125" depart="74.29" departLane="best" from="-27586532#1" to="-471659281" type="truck_truck"/>
    <trip id="truck126" depart="74.88" departLane="best" from="-560269842#1" to="572095530#0" type="truck_truck"/>
    <trip id="truck127" depart="75.48" departLane="best" from="457093355#0" to="465895358" type="truck_truck"/>
    <trip id="truck128" depart="76.07" departLane="best" from="172868750" to="-39120530" type="truck_truck"/>
    <trip id="truck129" depart="76.67" departLane="best" from="428102023#1" to="401300455#3" type="truck_truck"/>
    <trip id="truck130" depart="77.26" departLane="best" from="339106276" to="8547727#0" type="truck_truck"/>
    <trip id="truck131" depart="77.85" departLane="best" from="37916499" to="-131628119#0" type="truck_truck"/>
    <trip id="truck132" depart="78.45" departLane="best" from="427018862#0" to="16238438#4" type="truck_truck"/>
    <trip id="truck133" depart="79.04" departLane="best" from="38508531" to="578707887#2" type="truck_truck"/>
    <trip id="truck134" depart="79.64" departLane="best" from="-39048508#3" to="-37916531#1" type="truck_truck"/>
    <trip id="truck135" depart="80.23" departLane="best" from="-374915865" to="301151223" type="truck_truck"/>
    <trip id="truck136" depart="80.83" departLane="best" from="-612083734" to="37808165#2" type="truck_truck"/>
    <trip id="truck137" depart="81.42" departLane="best" from="39081849#0" to="-438470510#0" type="truck_truck"/>
    <trip id="truck138" depart="82.01" departLane="best" from="370514753#1" to="128515109#2" type="truck_truck"/>
    <trip id="truck139" depart="82.61" departLane="best" from="241318602#3" to="504626071" type="truck_truck"/>
    <trip id="truck140" depart="83.20" departLane="best" from="430128047#1" to="-277478974#0" type="truck_truck"/>
    <trip id="truck141" depart="83.80" departLane="best" from="229481575#1" to="132236349" type="truck_truck"/>
    <trip id="truck142" depart="84.39" departLane="best" from="-130808660#1" to="426511385" type="truck_truck"/>
    <trip id="truck143" depart="84.99" departLane="best" from="373580561#0" to="128511287#3" type="truck_truck"/>
    <trip id="truck144" depart="85.58" departLane="best" from="418365018#1" to="290026189#2" type="truck_truck"/>
    <trip id="truck145" depart="86.17" departLane="best" from="230398376" to="-131655871" type="truck_truck"/>
    <trip id="truck146" depart="86.77" departLane="best" from="-27611587" to="46892974#2" type="truck_truck"/>
    <trip id="truck147" depart="87.36" departLane="best" from="498338005" to="280118519#8" type="truck_truck"/>
    <trip id="truck148" depart="87.96" departLane="best" from="428111149#1" to="359790121#10" type="truck_truck"/>
    <trip id="truck149" depart="88.55" departLane="best" from="-39056475#3" to="-39014082#2" type="truck_truck"/>
    <trip id="truck150" depart="89.15" departLane="best" from="129439669" to="490216501" type="truck_truck"/>
    <trip id="truck151" depart="89.74" departLane="best" from="426507058" to="448209065#3" type="truck_truck"/>
    <trip id="truck153" depart="90.93" departLane="best" from="425926846#0" to="46927935#0" type="truck_truck"/>
    <trip id="truck154" depart="91.52" departLane="best" from="202867531#0" to="37916557#2" type="truck_truck"/>
    <trip id="truck155" depart="92.12" departLane="best" from="-39081428#1" to="56394526#3" type="truck_truck"/>
    <trip id="truck156" depart="92.71" departLane="best" from="447117757#5" to="75329374" type="truck_truck"/>
    <trip id="truck157" depart="93.31" departLane="best" from="426927713#0" to="46892380" type="truck_truck"/>
    <trip id="truck158" depart="93.90" departLane="best" from="-184745785#0" to="424586841#0" type="truck_truck"/>
    <trip id="truck159" depart="94.49" departLane="best" from="14517187#0" to="565161446#0" type="truck_truck"/>
    <trip id="truck160" depart="95.09" departLane="best" from="426601878#1" to="449612098#0" type="truck_truck"/>
    <trip id="truck161" depart="95.68" departLane="best" from="426927713#0" to="128519868" type="truck_truck"/>
    <trip id="truck162" depart="96.28" departLane="best" from="425942463" to="-377396453" type="truck_truck"/>
    <trip id="truck163" depart="96.87" departLane="best" from="450833653#0" to="447117759#2" type="truck_truck"/>
    <trip id="truck164" depart="97.47" departLane="best" from="-431552168" to="430126278" type="truck_truck"/>
    <trip id="truck165" depart="98.06" departLane="best" from="231715370" to="165623489" type="truck_truck"/>
    <trip id="truck166" depart="98.66" departLane="best" from="426506695#2" to="-56394532#1" type="truck_truck"/>
    <trip id="truck167" depart="99.25" departLane="best" from="-183752965" to="-430126275" type="truck_truck"/>
    <trip id="truck168" depart="99.84" departLane="best" from="141294961#2" to="449612384" type="truck_truck"/>
    <trip id="truck169" depart="100.44" departLane="best" from="679367236" to="133333369#4" type="truck_truck"/>
    <trip id="truck170" depart="101.03" departLane="best" from="37909812#0" to="230784033#2" type="truck_truck"/>
    <trip id="truck172" depart="102.22" departLane="best" from="589515206#2" to="-37916531#1" type="truck_truck"/>
    <trip id="truck173" depart="102.82" departLane="best" from="72614053" to="-427243088#0" type="truck_truck"/>
    <trip id="truck174" depart="103.41" departLane="best" from="672784703#5" to="128515118#1" type="truck_truck"/>
    <trip id="truck175" depart="104.00" departLane="best" from="-377396455#1" to="237455940#1" type="truck_truck"/>
    <trip id="truck176" depart="104.60" departLane="best" from="39117751" to="171847637" type="truck_truck"/>
    <trip id="truck177" depart="105.19" departLane="best" from="333520062#4" to="27639585#3" type="truck_truck"/>
    <trip id="truck178" depart="105.79" departLane="best" from="184855988#4" to="34439046#0" type="truck_truck"/>
    <trip id="truck181" depart="107.57" departLane="best" from="27238983#0" to="423987908#1" type="truck_truck"/>
    <trip id="truck182" depart="108.16" departLane="best" from="418365026#1" to="39053414" type="truck_truck"/>
    <trip id="truck183" depart="108.76" departLane="best" from="172433904#1" to="-27030027#3" type="truck_truck"/>
    <trip id="truck184" depart="109.35" departLane="best" from="38569959#2" to="173685914#1" type="truck_truck"/>
    <trip id="truck185" depart="109.95" departLane="best" from="131655865#1" to="437180473#0" type="truck_truck"/>
    <trip id="truck186" depart="110.54" departLane="best" from="39081859#0" to="16257538#1" type="truck_truck"/>
    <trip id="truck187" depart="111.14" departLane="best" from="130808658#3" to="231350458#3" type="truck_truck"/>
    <trip id="truck188" depart="111.73" departLane="best" from="19797658#3" to="154421037" type="truck_truck"/>
    <trip id="truck189" depart="112.32" departLane="best" from="-39014080#1" to="233692914" type="truck_truck"/>
    <trip id="truck190" depart="112.92" departLane="best" from="59515637#1" to="39056465" type="truck_truck"/>
    <trip id="truck191" depart="113.51" departLane="best" from="493367006#2" to="37916463" type="truck_truck"/>
    <trip id="truck192" depart="114.11" departLane="best" from="128511288#1" to="28788350#1" type="truck_truck"/>
    <trip id="truck193" depart="114.70" departLane="best" from="-123103598#2" to="142906169#1" type="truck_truck"/>
    <trip id="truck194" depart="115.30" departLane="best" from="230628518" to="358278701" type="truck_truck"/>
    <trip id="truck195" depart="115.89" departLane="best" from="37916524#2" to="251628553" type="truck_truck"/>
    <trip id="truck196" depart="116.48" departLane="best" from="230784541" to="-472258016" type="truck_truck"/>
    <trip id="truck197" depart="117.08" departLane="best" from="237212807#1" to="492140388#1" type="truck_truck"/>
    <trip id="truck198" depart="117.67" departLane="best" from="426507057" to="-425945263" type="truck_truck"/>
    <trip id="truck199" depart="118.27" departLane="best" from="-27660277" to="27639622#1" type="truck_truck"/>
    <trip id="truck200" depart="118.86" departLane="best" from="369907216#0" to="183752945#0" type="truck_truck"/>
    <trip id="truck201" depart="119.46" departLane="best" from="427243023#1" to="425925652" type="truck_truck"/>
    <trip id="truck202" depart="120.05" departLane="best" from="38631699#5" to="-547305685#1" type="truck_truck"/>
    <trip id="truck203" depart="120.64" departLane="best" from="-430119363" to="-172744182#1" type="truck_truck"/>
    <trip id="truck204" depart="121.24" departLane="best" from="-469728272" to="256507154" type="truck_truck"/>
    <trip id="truck205" depart="121.83" departLane="best" from="435973649#2" to="-27030123#0" type="truck_truck"/>
    <trip id="truck206" depart="122.43" departLane="best" from="211556987#9" to="38583815#1" type="truck_truck"/>
    <trip id="truck207" depart="123.02" departLane="best" from="-427400930" to="39117743#1" type="truck_truck"/>
    <trip id="truck208" depart="123.62" departLane="best" from="244936614#5" to="-76695040" type="truck_truck"/>
    <trip id="truck209" depart="124.21" departLane="best" from="37916541" to="-129439669" type="truck_truck"/>
    <trip id="truck210" depart="124.80" departLane="best" from="424211068" to="426511024" type="truck_truck"/>
    <trip id="truck211" depart="125.40" departLane="best" from="-373580561#0" to="236765475#2" type="truck_truck"/>
    <trip id="truck212" depart="125.99" departLane="best" from="-425942443#1" to="645595744#2" type="truck_truck"/>
    <trip id="truck213" depart="126.59" departLane="best" from="25953774#2" to="-237455923#0" type="truck_truck"/>
    <trip id="truck214" depart="127.18" departLane="best" from="-490216495#1" to="437181266#1" type="truck_truck"/>
    <trip id="truck215" depart="127.78" departLane="best" from="231355583" to="427400738#1" type="truck_truck"/>
    <trip id="truck216" depart="128.37" departLane="best" from="38585150" to="8547744#1" type="truck_truck"/>
    <trip id="truck217" depart="128.96" departLane="best" from="318211695" to="620987193#0" type="truck_truck"/>
    <trip id="truck218" depart="129.56" departLane="best" from="474015557" to="37916388#0" type="truck_truck"/>
    <trip id="truck219" depart="130.15" departLane="best" from="39081857#0" to="27586535#4" type="truck_truck"/>
    <trip id="truck220" depart="130.75" departLane="best" from="427400766#1" to="28788350#0" type="truck_truck"/>
    <trip id="truck221" depart="131.34" departLane="best" from="487911486#2" to="425457913#1" type="truck_truck"/>
    <trip id="truck222" depart="131.94" departLane="best" from="237455923#0" to="128508551#0" type="truck_truck"/>
    <trip id="truck223" depart="132.53" departLane="best" from="-477587486#0" to="38631715#0" type="truck_truck"/>
    <trip id="truck224" depart="133.12" departLane="best" from="424630792" to="27639662" type="truck_truck"/>
    <trip id="truck225" depart="133.72" departLane="best" from="369907196#3" to="131655879" type="truck_truck"/>
    <trip id="truck226" depart="134.31" departLane="best" from="-27639594" to="141294961#3" type="truck_truck"/>
    <trip id="truck227" depart="134.91" departLane="best" from="-598422931" to="172297075#4" type="truck_truck"/>
    <trip id="truck229" depart="136.10" departLane="best" from="-438470923" to="39082331#14" type="truck_truck"/>
    <trip id="truck230" depart="136.69" departLane="best" from="39053434#0" to="-255818924#5" type="truck_truck"/>
    <trip id="truck231" depart="137.28" departLane="best" from="204071640" to="278992350" type="truck_truck"/>
    <trip id="truck232" depart="137.88" departLane="best" from="212554510#1" to="-448209065#2" type="truck_truck"/>
    <trip id="truck233" depart="138.47" departLane="best" from="226358420#2" to="504569149" type="truck_truck"/>
    <trip id="truck234" depart="139.07" departLane="best" from="280118522#3" to="39117733#1" type="truck_truck"/>
    <trip id="truck235" depart="139.66" departLane="best" from="437192721#0" to="426505733#2" type="truck_truck"/>
    <trip id="truck236" depart="140.26" departLane="best" from="184006422#2" to="-130808660#1" type="truck_truck"/>
    <trip id="truck237" depart="140.85" departLane="best" from="436333202" to="627182616#7" type="truck_truck"/>
    <trip id="truck238" depart="141.45" departLane="best" from="221635258#0" to="425694028#1" type="truck_truck"/>
    <trip id="truck239" depart="142.04" departLane="best" from="27587525#1" to="37538257" type="truck_truck"/>
    <trip id="truck241" depart="143.23" departLane="best" from="230628541#0" to="-184767079" type="truck_truck"/>
    <trip id="truck242" depart="143.82" departLane="best" from="15260247#1" to="39077808" type="truck_truck"/>
    <trip id="truck243" depart="144.42" departLane="best" from="199121003" to="-424630866#0" type="truck_truck"/>
    <trip id="truck244" depart="145.01" departLane="best" from="236732296#0" to="-39014083" type="truck_truck"/>
    <trip id="truck245" depart="145.61" departLane="best" from="366497294#1" to="-172868948" type="truck_truck"/>
    <trip id="truck246" depart="146.20" departLane="best" from="192583210#5" to="329094557#1" type="truck_truck"/>
    <trip id="truck248" depart="147.39" departLane="best" from="-39048535#0" to="246848875" type="truck_truck"/>
    <trip id="truck249" depart="147.98" departLane="best" from="-238318428#1" to="228351158#0" type="truck_truck"/>
    <trip id="truck250" depart="148.58" departLane="best" from="-430128167" to="172868747#1" type="truck_truck"/>
    <trip id="truck251" depart="149.17" departLane="best" from="424410724#1" to="228351158#0" type="truck_truck"/>
    <trip id="truck252" depart="149.77" departLane="best" from="424211551#0" to="430129437#0" type="truck_truck"/>
    <trip id="truck253" depart="150.36" departLane="best" from="-498875212" to="-27639611" type="truck_truck"/>
    <trip id="truck254" depart="150.95" departLane="best" from="-172297075#5" to="277480298" type="truck_truck"/>
    <trip id="truck255" depart="151.55" departLane="best" from="37916430#1" to="426696435#2" type="truck_truck"/>
    <trip id="truck256" depart="152.14" departLane="best" from="37916463" to="425929169#2" type="truck_truck"/>
    <trip id="truck257" depart="152.74" departLane="best" from="627182616#0" to="-431548664#0" type="truck_truck"/>
    <trip id="truck258" depart="153.33" departLane="best" from="-172743779" to="-39081857#2" type="truck_truck"/>
    <trip id="truck259" depart="153.93" departLane="best" from="-38841784#5" to="39051671#1" type="truck_truck"/>
    <trip id="truck260" depart="154.52" departLane="best" from="27644485#0" to="-493727321" type="truck_truck"/>
    <trip id="truck261" depart="155.11" departLane="best" from="39049679#0" to="426505743#1" type="truck_truck"/>
    <trip id="truck262" depart="155.71" departLane="best" from="-424211533" to="37909826#1" type="truck_truck"/>
    <trip id="truck263" depart="156.30" departLane="best" from="424136014#0" to="-37916466" type="truck_truck"/>
    <trip id="truck264" depart="156.90" departLane="best" from="427243040" to="677781390#1" type="truck_truck"/>
    <trip id="truck265" depart="157.49" departLane="best" from="-377396455#1" to="-172747396#1" type="truck_truck"/>
    <trip id="truck266" depart="158.09" departLane="best" from="131628109#3" to="39056465" type="truck_truck"/>
    <trip id="truck267" depart="158.68" departLane="best" from="661786912" to="230629143" type="truck_truck"/>
    <trip id="truck268" depart="159.27" departLane="best" from="39080241" to="-27238962#1" type="truck_truck"/>
    <trip id="truck269" depart="159.87" departLane="best" from="39048451#1" to="38508523" type="truck_truck"/>
    <trip id="truck270" depart="160.46" departLane="best" from="-35472704" to="426511888#2" type="truck_truck"/>
    <trip id="truck272" depart="161.65" departLane="best" from="-38709146" to="8103462" type="truck_truck"/>
    <trip id="truck273" depart="162.25" departLane="best" from="425929198" to="185783795#3" type="truck_truck"/>
    <trip id="truck274" depart="162.84" departLane="best" from="230615749#1" to="211455038" type="truck_truck"/>
    <trip id="truck275" depart="163.43" departLane="best" from="250047718#1" to="184765909#2" type="truck_truck"/>
    <trip id="truck276" depart="164.03" departLane="best" from="435973649#0" to="430127940#1" type="truck_truck"/>
    <trip id="truck277" depart="164.62" departLane="best" from="-369907196#8" to="661786914#2" type="truck_truck"/>
    <trip id="truck278" depart="165.22" departLane="best" from="37253817" to="430128409" type="truck_truck"/>
    <trip id="truck279" depart="165.81" departLane="best" from="39053438#0" to="237470831#0" type="truck_truck"/>