<routes xmlns:xsi="http://www.w3.org/2001/XMLSchema-instance" xsi:noNamespaceSchemaLocation="http://sumo.dlr.de/xsd/routes_file.xsd">
    <vType id="truck_truck" vClass="truck">
    </vType>
    <trip depart="0.00" departLane="best" from="37538131#3" id="truck0" to="-172745429#3" type="truck_truck" />
    <trip depart="0.59" departLane="best" from="-638729328#0" id="truck1" to="-53826080#0" type="truck_truck" />
    <trip depart="1.19" departLane="best" from="405489977#1" id="truck2" to="39056456#0" type="truck_truck" />
    <trip depart="1.78" departLane="best" from="476994770" id="truck3" to="-27644487#2" type="truck_truck" />
    <trip depart="2.38" departLane="best" from="229480219#0" id="truck4" to="-185627527#0" type="truck_truck" />
    <trip depart="2.97" departLane="best" from="-431546440" id="truck5" to="27587520" type="truck_truck" />
    <trip depart="4.16" departLane="best" from="37916421#5" id="truck7" to="279753892#0" type="truck_truck" />
    <trip depart="4.75" departLane="best" from="-431548666#1" id="truck8" to="369907195#2" type="truck_truck" />
    <trip depart="5.35" departLane="best" from="426696442" id="truck9" to="-131628108#0" type="truck_truck" />
    <trip depart="5.94" departLane="best" from="426696411" id="truck10" to="39117758#3" type="truck_truck" />
    <trip depart="7.13" departLane="best" from="661786906#0" id="truck12" to="183853700#1" type="truck_truck" />
    <trip depart="7.73" departLane="best" from="-283003800" id="truck13" to="-294108450#1" type="truck_truck" />
    <trip depart="8.91" departLane="best" from="426696421#4" id="truck15" to="424222641" type="truck_truck" />
    <trip depart="9.51" departLane="best" from="27030139#4" id="truck16" to="72767330" type="truck_truck" />
    <trip depart="10.10" departLane="best" from="183853693#2" id="truck17" to="293597698#3" type="truck_truck" />
    <trip depart="10.70" departLane="best" from="427400681#3" id="truck18" to="37916524#2" type="truck_truck" />
    <trip depart="11.89" departLane="best" from="-436646700" id="truck20" to="14519876#1" type="truck_truck" />
    <trip depart="13.07" departLane="best" from="-33968289" id="truck22" to="133125089" type="truck_truck" />
    <trip depart="14.26" departLane="best" from="172868866" id="truck24" to="-454557952" type="truck_truck" />
    <trip depart="14.86" departLane="best" from="37916372#0" id="truck25" to="37909863#0" type="truck_truck" />
    <trip depart="15.45" departLane="best" from="-424630842" id="truck26" to="424217366#3" type="truck_truck" />
    <trip depart="16.64" departLane="best" from="8578569#1" id="truck28" to="38738605#10" type="truck_truck" />
    <trip depart="17.23" departLane="best" from="27639627#0" id="truck29" to="39080244#4" type="truck_truck" />
    <trip depart="18.42" departLane="best" from="-438225728" id="truck31" to="-192583210#1" type="truck_truck" />
    <trip depart="19.02" departLane="best" from="131655872" id="truck32" to="128675561#0" type="truck_truck" />
    <trip depart="19.61" departLane="best" from="-430128044" id="truck33" to="589515206#10" type="truck_truck" />
    <trip depart="20.21" departLane="best" from="454570251" id="truck34" to="171847846#5" type="truck_truck" />
    <trip depart="20.80" departLane="best" from="37916531#1" id="truck35" to="230628805#4" type="truck_truck" />
    <trip depart="21.40" departLane="best" from="524255618#0" id="truck36" to="246307536#0" type="truck_truck" />
    <trip depart="21.99" departLane="best" from="-560269842#1" id="truck37" to="-79162696" type="truck_truck" />
    <trip depart="22.58" departLane="best" from="27639664#1" id="truck38" to="128511294#0" type="truck_truck" />
    <trip depart="24.37" departLane="best" from="85796595" id="truck41" to="27639577#1" type="truck_truck" />
    <trip depart="26.15" departLane="best" from="426505724#1" id="truck44" to="235497117#0" type="truck_truck" />
    <trip depart="26.74" departLane="best" from="-27030008#1" id="truck45" to="229480983#4" type="truck_truck" />
    <trip depart="27.34" departLane="best" from="8579499" id="truck46" to="27666905#2" type="truck_truck" />
    <trip depart="28.53" departLane="best" from="-14521675#1" id="truck48" to="424210754#1" type="truck_truck" />
    <trip depart="29.12" departLane="best" from="39014083" id="truck49" to="27733787#6" type="truck_truck" />
    <trip depart="29.72" departLane="best" from="-565483609" id="truck50" to="38738608" type="truck_truck" />
    <trip depart="30.90" departLane="best" from="231350482#3" id="truck52" to="628293209#0" type="truck_truck" />
    <trip depart="31.50" departLane="best" from="454570246" id="truck53" to="128511297#0" type="truck_truck" />
    <trip depart="32.09" departLane="best" from="246708378" id="truck54" to="-427243088#1" type="truck_truck" />
    <trip depart="32.69" departLane="best" from="519490880" id="truck55" to="454561009#1" type="truck_truck" />
    <trip depart="33.28" departLane="best" from="337865808#2" id="truck56" to="-39081862#0" type="truck_truck" />
    <trip depart="33.88" departLane="best" from="424419378#3" id="truck57" to="277478975" type="truck_truck" />
    <trip depart="34.47" departLane="best" from="425925650" id="truck58" to="27667495#1" type="truck_truck" />
    <trip depart="35.06" departLane="best" from="-123103598#3" id="truck59" to="172744182#0" type="truck_truck" />
    <trip depart="35.66" departLane="best" from="-172308673#0" id="truck60" to="560269842#1" type="truck_truck" />
    <trip depart="36.25" departLane="best" from="454698074" id="truck61" to="430128620" type="truck_truck" />
    <trip depart="36.85" departLane="best" from="128676785" id="truck62" to="-246307536#0" type="truck_truck" />
    <trip depart="37.44" departLane="best" from="454680854#1" id="truck63" to="597462023" type="truck_truck" />
    <trip depart="39.22" departLane="best" from="424630792" id="truck66" to="-39046009" type="truck_truck" />
    <trip depart="39.82" departLane="best" from="237455925#4" id="truck67" to="28807592#6" type="truck_truck" />
    <trip depart="40.41" departLane="best" from="-560269842#1" id="truck68" to="454576378" type="truck_truck" />
    <trip depart="42.20" departLane="best" from="-430123093" id="truck71" to="171847101#0" type="truck_truck" />
    <trip depart="42.79" departLane="best" from="8579414#0" id="truck72" to="39014089#0" type="truck_truck" />
    <trip depart="43.38" departLane="best" from="230629147#1" id="truck73" to="27639632#0" type="truck_truck" />
    <trip depart="43.98" departLane="best" from="-38709146" id="truck74" to="-547305685#2" type="truck_truck" />
    <trip depart="44.57" departLane="best" from="153916351" id="truck75" to="369907161#0" type="truck_truck" />
    <trip depart="45.17" departLane="best" from="-438470920#1" id="truck76" to="-514557409" type="truck_truck" />
    <trip depart="45.76" departLane="best" from="-27030143#2" id="truck77" to="38585129#1" type="truck_truck" />
    <trip depart="46.36" departLane="best" from="-438225727" id="truck78" to="504627721" type="truck_truck" />
    <trip depart="47.54" departLane="best" from="-450506569" id="truck80" to="39051669" type="truck_truck" />
    <trip depart="48.14" departLane="best" from="-430128409" id="truck81" to="-39048488#1" type="truck_truck" />
    <trip depart="48.73" departLane="best" from="584764530#0" id="truck82" to="337865808#0" type="truck_truck" />
    <trip depart="49.33" departLane="best" from="237169411" id="truck83" to="426927754#1" type="truck_truck" />
    <trip depart="49.92" departLane="best" from="426696428#0" id="truck84" to="-430119076" type="truck_truck" />
    <trip depart="50.52" departLane="best" from="-329057268" id="truck85" to="237455921" type="truck_truck" />
    <trip depart="51.11" departLane="best" from="229481575#1" id="truck86" to="251867609" type="truck_truck" />
    <trip depart="52.89" departLane="best" from="19797659#0" id="truck89" to="184013932#0" type="truck_truck" />
    <trip depart="54.08" departLane="best" from="-427400712#2" id="truck91" to="244821391#0" type="truck_truck" />
    <trip depart="54.68" departLane="best" from="229480219#0" id="truck92" to="133333367#4" type="truck_truck" />
    <trip depart="55.27" departLane="best" from="-490216499#1" id="truck93" to="545465138#2" type="truck_truck" />
    <trip depart="56.46" departLane="best" from="27639579#4" id="truck95" to="-237455925#0" type="truck_truck" />
    <trip depart="57.05" departLane="best" from="8579917" id="truck96" to="431548669" type="truck_truck" />
    <trip depart="57.65" departLane="best" from="71958447#4" id="truck97" to="556750747#8" type="truck_truck" />
    <trip depart="59.43" departLane="best" from="19796859#2" id="truck100" to="-246848888#0" type="truck_truck" />
    <trip depart="60.03" departLane="best" from="183853715#1" id="truck101" to="8148347" type="truck_truck" />
    <trip depart="60.62" departLane="best" from="-560269842#1" id="truck102" to="426927738#2" type="truck_truck" />
    <trip depart="61.81" departLane="best" from="661786906#1" id="truck104" to="8579488#2" type="truck_truck" />
    <trip depart="62.40" departLane="best" from="27639617" id="truck105" to="423976021#6" type="truck_truck" />
    <trip depart="63.00" departLane="best" from="-39081428#2" id="truck106" to="157188563#9" type="truck_truck" />
    <trip depart="63.59" departLane="best" from="71958447#1" id="truck107" to="355326291" type="truck_truck" />
    <trip depart="64.19" departLane="best" from="27474561" id="truck108" to="425846511#0" type="truck_truck" />
    <trip depart="64.78" departLane="best" from="-248091975" id="truck109" to="359790126" type="truck_truck" />
    <trip depart="65.37" departLane="best" from="247519635#1" id="truck110" to="438471390#0" type="truck_truck" />
    <trip depart="65.97" departLane="best" from="-39081888#0" id="truck111" to="661786914#2" type="truck_truck" />
    <trip depart="66.56" departLane="best" from="-27639632#2" id="truck112" to="-427400867#2" type="truck_truck" />
    <trip depart="67.16" departLane="best" from="312295510#2" id="truck113" to="39056441#2" type="truck_truck" />
    <trip depart="67.75" departLane="best" from="-448209065#0" id="truck114" to="-38570166#2" type="truck_truck" />
    <trip depart="68.35" departLane="best" from="471622252" id="truck115" to="-79159684#1" type="truck_truck" />
    <trip depart="68.94" departLane="best" from="312295508#0" id="truck116" to="37916533#0" type="truck_truck" />
    <trip depart="69.53" departLane="best" from="221635258#2" id="truck117" to="359790125#1" type="truck_truck" />
    <trip depart="70.13" departLane="best" from="265227053#13" id="truck118" to="576954816#2" type="truck_truck" />
    <trip depart="70.72" departLane="best" from="-430126368#1" id="truck119" to="423497710#0" type="truck_truck" />
    <trip depart="71.32" departLane="best" from="-450680119" id="truck120" to="230628805#5" type="truck_truck" />
    <trip depart="71.91" departLane="best" from="38631692#0" id="truck121" to="16257487#2" type="truck_truck" />
    <trip depart="72.51" departLane="best" from="131655875#0" id="truck122" to="425926581#1" type="truck_truck" />
    <trip depart="73.10" departLane="best" from="-27238983#2" id="truck123" to="245893027" type="truck_truck" />
    <trip depart="74.29" departLane="best" from="-27586532#1" id="truck125" to="-471659281" type="truck_truck" />
    <trip depart="74.88" departLane="best" from="-560269842#1" id="truck126" to="572095530#0" type="truck_truck" />
    <trip depart="75.48" departLane="best" from="457093355#0" id="truck127" to="465895358" type="truck_truck" />
    <trip depart="76.07" departLane="best" from="172868750" id="truck128" to="-39120530" type="truck_truck" />
    <trip depart="76.67" departLane="best" from="428102023#1" id="truck129" to="401300455#3" type="truck_truck" />
    <trip depart="77.26" departLane="best" from="339106276" id="truck130" to="8547727#0" type="truck_truck" />
    <trip depart="78.45" departLane="best" from="427018862#0" id="truck132" to="16238438#4" type="truck_truck" />
    <trip depart="79.04" departLane="best" from="38508531" id="truck133" to="578707887#2" type="truck_truck" />
    <trip depart="79.64" departLane="best" from="-39048508#3" id="truck134" to="-37916531#1" type="truck_truck" />
    <trip depart="80.23" departLane="best" from="-374915865" id="truck135" to="301151223" type="truck_truck" />
    <trip depart="80.83" departLane="best" from="-612083734" id="truck136" to="37808165#2" type="truck_truck" />
    <trip depart="81.42" departLane="best" from="39081849#0" id="truck137" to="-438470510#0" type="truck_truck" />
    <trip depart="82.01" departLane="best" from="370514753#1" id="truck138" to="128515109#2" type="truck_truck" />
    <trip depart="82.61" departLane="best" from="241318602#3" id="truck139" to="504626071" type="truck_truck" />
    <trip depart="83.20" departLane="best" from="430128047#1" id="truck140" to="-277478974#0" type="truck_truck" />
    <trip depart="83.80" departLane="best" from="229481575#1" id="truck141" to="132236349" type="truck_truck" />
    <trip depart="84.39" departLane="best" from="-130808660#1" id="truck142" to="426511385" type="truck_truck" />
    <trip depart="84.99" departLane="best" from="373580561#0" id="truck143" to="128511287#3" type="truck_truck" />
    <trip depart="85.58" departLane="best" from="418365018#1" id="truck144" to="290026189#2" type="truck_truck" />
    <trip depart="86.17" departLane="best" from="230398376" id="truck145" to="-131655871" type="truck_truck" />
    <trip depart="86.77" departLane="best" from="-27611587" id="truck146" to="46892974#2" type="truck_truck" />
    <trip depart="87.36" departLane="best" from="498338005" id="truck147" to="280118519#8" type="truck_truck" />
    <trip depart="88.55" departLane="best" from="-39056475#3" id="truck149" to="-39014082#2" type="truck_truck" />
    <trip depart="89.15" departLane="best" from="129439669" id="truck150" to="490216501" type="truck_truck" />
    <trip depart="89.74" departLane="best" from="426507058" id="truck151" to="448209065#3" type="truck_truck" />
    <trip depart="90.93" departLane="best" from="425926846#0" id="truck153" to="46927935#0" type="truck_truck" />
    <trip depart="91.52" departLane="best" from="202867531#0" id="truck154" to="37916557#2" type="truck_truck" />
    <trip depart="92.12" departLane="best" from="-39081428#1" id="truck155" to="56394526#3" type="truck_truck" />
    <trip depart="92.71" departLane="best" from="447117757#5" id="truck156" to="75329374" type="truck_truck" />
    <trip depart="93.31" departLane="best" from="426927713#0" id="truck157" to="46892380" type="truck_truck" />
    <trip depart="93.90" departLane="best" from="-184745785#0" id="truck158" to="424586841#0" type="truck_truck" />
    <trip depart="94.49" departLane="best" from="14517187#0" id="truck159" to="565161446#0" type="truck_truck" />
    <trip depart="95.09" departLane="best" from="426601878#1" id="truck160" to="449612098#0" type="truck_truck" />
    <trip depart="95.68" departLane="best" from="426927713#0" id="truck161" to="128519868" type="truck_truck" />
    <trip depart="96.28" departLane="best" from="425942463" id="truck162" to="-377396453" type="truck_truck" />
    <trip depart="96.87" departLane="best" from="450833653#0" id="truck163" to="447117759#2" type="truck_truck" />
    <trip depart="97.47" departLane="best" from="-431552168" id="truck164" to="430126278" type="truck_truck" />
    <trip depart="98.06" departLane="best" from="231715370" id="truck165" to="165623489" type="truck_truck" />
    <trip depart="98.66" departLane="best" from="426506695#2" id="truck166" to="-56394532#1" type="truck_truck" />
    <trip depart="99.25" departLane="best" from="-183752965" id="truck167" to="-430126275" type="truck_truck" />
    <trip depart="99.84" departLane="best" from="141294961#2" id="truck168" to="449612384" type="truck_truck" />
    <trip depart="100.44" departLane="best" from="679367236" id="truck169" to="133333369#4" type="truck_truck" />
    <trip depart="101.03" departLane="best" from="37909812#0" id="truck170" to="230784033#2" type="truck_truck" />
    <trip depart="102.22" departLane="best" from="589515206#2" id="truck172" to="-37916531#1" type="truck_truck" />
    <trip depart="102.82" departLane="best" from="72614053" id="truck173" to="-427243088#0" type="truck_truck" />
    <trip depart="103.41" departLane="best" from="672784703#5" id="truck174" to="128515118#1" type="truck_truck" />
    <trip depart="104.00" departLane="best" from="-377396455#1" id="truck175" to="237455940#1" type="truck_truck" />
    <trip depart="104.60" departLane="best" from="39117751" id="truck176" to="171847637" type="truck_truck" />
    <trip depart="105.19" departLane="best" from="333520062#4" id="truck177" to="27639585#3" type="truck_truck" />
    <trip depart="105.79" departLane="best" from="184855988#4" id="truck178" to="34439046#0" type="truck_truck" />
    <trip depart="107.57" departLane="best" from="27238983#0" id="truck181" to="423987908#1" type="truck_truck" />
    <trip depart="108.16" departLane="best" from="418365026#1" id="truck182" to="39053414" type="truck_truck" />
    <trip depart="109.35" departLane="best" from="38569959#2" id="truck184" to="173685914#1" type="truck_truck" />
    <trip depart="109.95" departLane="best" from="131655865#1" id="truck185" to="437180473#0" type="truck_truck" />
    <trip depart="111.73" departLane="best" from="19797658#3" id="truck188" to="154421037" type="truck_truck" />
    <trip depart="112.32" departLane="best" from="-39014080#1" id="truck189" to="233692914" type="truck_truck" />
    <trip depart="113.51" departLane="best" from="493367006#2" id="truck191" to="37916463" type="truck_truck" />
    <trip depart="114.11" departLane="best" from="128511288#1" id="truck192" to="28788350#1" type="truck_truck" />
    <trip depart="115.30" departLane="best" from="230628518" id="truck194" to="358278701" type="truck_truck" />
    <trip depart="115.89" departLane="best" from="37916524#2" id="truck195" to="251628553" type="truck_truck" />
    <trip depart="116.48" departLane="best" from="230784541" id="truck196" to="-472258016" type="truck_truck" />
    <trip depart="117.08" departLane="best" from="237212807#1" id="truck197" to="492140388#1" type="truck_truck" />
    <trip depart="117.67" departLane="best" from="426507057" id="truck198" to="-425945263" type="truck_truck" />
    <trip depart="118.27" departLane="best" from="-27660277" id="truck199" to="27639622#1" type="truck_truck" />
    <trip depart="119.46" departLane="best" from="427243023#1" id="truck201" to="425925652" type="truck_truck" />
    <trip depart="120.05" departLane="best" from="38631699#5" id="truck202" to="-547305685#1" type="truck_truck" />
    <trip depart="120.64" departLane="best" from="-430119363" id="truck203" to="-172744182#1" type="truck_truck" />
    <trip depart="121.24" departLane="best" from="-469728272" id="truck204" to="256507154" type="truck_truck" />
    <trip depart="122.43" departLane="best" from="211556987#9" id="truck206" to="38583815#1" type="truck_truck" />
    <trip depart="123.02" departLane="best" from="-427400930" id="truck207" to="39117743#1" type="truck_truck" />
    <trip depart="123.62" departLane="best" from="244936614#5" id="truck208" to="-76695040" type="truck_truck" />
    <trip depart="124.80" departLane="best" from="424211068" id="truck210" to="426511024" type="truck_truck" />
    <trip depart="125.40" departLane="best" from="-373580561#0" id="truck211" to="236765475#2" type="truck_truck" />
    <trip depart="125.99" departLane="best" from="-425942443#1" id="truck212" to="645595744#2" type="truck_truck" />
    <trip depart="127.18" departLane="best" from="-490216495#1" id="truck214" to="437181266#1" type="truck_truck" />
    <trip depart="127.78" departLane="best" from="231355583" id="truck215" to="427400738#1" type="truck_truck" />
    <trip depart="128.37" departLane="best" from="38585150" id="truck216" to="8547744#1" type="truck_truck" />
    <trip depart="128.96" departLane="best" from="318211695" id="truck217" to="620987193#0" type="truck_truck" />
    <trip depart="129.56" departLane="best" from="474015557" id="truck218" to="37916388#0" type="truck_truck" />
    <trip depart="130.15" departLane="best" from="39081857#0" id="truck219" to="27586535#4" type="truck_truck" />
    <trip depart="130.75" departLane="best" from="427400766#1" id="truck220" to="28788350#0" type="truck_truck" />
    <trip depart="131.34" departLane="best" from="487911486#2" id="truck221" to="425457913#1" type="truck_truck" />
    <trip depart="131.94" departLane="best" from="237455923#0" id="truck222" to="128508551#0" type="truck_truck" />
    <trip depart="133.12" departLane="best" from="424630792" id="truck224" to="27639662" type="truck_truck" />
    <trip depart="133.72" departLane="best" from="369907196#3" id="truck225" to="131655879" type="truck_truck" />
    <trip depart="134.31" departLane="best" from="-27639594" id="truck226" to="141294961#3" type="truck_truck" />
    <trip depart="134.91" departLane="best" from="-598422931" id="truck227" to="172297075#4" type="truck_truck" />
    <trip depart="136.10" departLane="best" from="-438470923" id="truck229" to="39082331#14" type="truck_truck" />
    <trip depart="136.69" departLane="best" from="39053434#0" id="truck230" to="-255818924#5" type="truck_truck" />
    <trip depart="137.28" departLane="best" from="204071640" id="truck231" to="278992350" type="truck_truck" />
    <trip depart="137.88" departLane="best" from="212554510#1" id="truck232" to="-448209065#2" type="truck_truck" />
    <trip depart="139.07" departLane="best" from="280118522#3" id="truck234" to="39117733#1" type="truck_truck" />
    <trip depart="140.26" departLane="best" from="184006422#2" id="truck236" to="-130808660#1" type="truck_truck" />
    <trip depart="140.85" departLane="best" from="436333202" id="truck237" to="627182616#7" type="truck_truck" />
    <trip depart="141.45" departLane="best" from="221635258#0" id="truck238" to="425694028#1" type="truck_truck" />
    <trip depart="142.04" departLane="best" from="27587525#1" id="truck239" to="37538257" type="truck_truck" />
    <trip depart="143.23" departLane="best" from="230628541#0" id="truck241" to="-184767079" type="truck_truck" />
    <trip depart="143.82" departLane="best" from="15260247#1" id="truck242" to="39077808" type="truck_truck" />
    <trip depart="144.42" departLane="best" from="199121003" id="truck243" to="-424630866#0" type="truck_truck" />
    <trip depart="145.01" departLane="best" from="236732296#0" id="truck244" to="-39014083" type="truck_truck" />
    <trip depart="145.61" departLane="best" from="366497294#1" id="truck245" to="-172868948" type="truck_truck" />
    <trip depart="146.20" departLane="best" from="192583210#5" id="truck246" to="329094557#1" type="truck_truck" />
    <trip depart="147.39" departLane="best" from="-39048535#0" id="truck248" to="246848875" type="truck_truck" />
    <trip depart="147.98" departLane="best" from="-238318428#1" id="truck249" to="228351158#0" type="truck_truck" />
    <trip depart="148.58" departLane="best" from="-430128167" id="truck250" to="172868747#1" type="truck_truck" />
    <trip depart="149.17" departLane="best" from="424410724#1" id="truck251" to="228351158#0" type="truck_truck" />
    <trip depart="149.77" departLane="best" from="424211551#0" id="truck252" to="430129437#0" type="truck_truck" />
    <trip depart="150.95" departLane="best" from="-172297075#5" id="truck254" to="277480298" type="truck_truck" />
    <trip depart="152.74" departLane="best" from="627182616#0" id="truck257" to="-431548664#0" type="truck_truck" />
    <trip depart="153.33" departLane="best" from="-172743779" id="truck258" to="-39081857#2" type="truck_truck" />
    <trip depart="153.93" departLane="best" from="-38841784#5" id="truck259" to="39051671#1" type="truck_truck" />
    <trip depart="155.71" departLane="best" from="-424211533" id="truck262" to="37909826#1" type="truck_truck" />
    <trip depart="156.30" departLane="best" from="424136014#0" id="truck263" to="-37916466" type="truck_truck" />
    <trip depart="156.90" departLane="best" from="427243040" id="truck264" to="677781390#1" type="truck_truck" />
    <trip depart="158.09" departLane="best" from="131628109#3" id="truck266" to="39056465" type="truck_truck" />
    <trip depart="158.68" departLane="best" from="661786912" id="truck267" to="230629143" type="truck_truck" />
    <trip depart="159.27" departLane="best" from="39080241" id="truck268" to="-27238962#1" type="truck_truck" />
    <trip depart="159.87" departLane="best" from="39048451#1" id="truck269" to="38508523" type="truck_truck" />
    <trip depart="160.46" departLane="best" from="-35472704" id="truck270" to="426511888#2" type="truck_truck" />
    <trip depart="161.65" departLane="best" from="-38709146" id="truck272" to="8103462" type="truck_truck" />
    <trip depart="162.25" departLane="best" from="425929198" id="truck273" to="185783795#3" type="truck_truck" />
    <trip depart="162.84" departLane="best" from="230615749#1" id="truck274" to="211455038" type="truck_truck" />
    <trip depart="163.43" departLane="best" from="250047718#1" id="truck275" to="184765909#2" type="truck_truck" />
    <trip depart="164.62" departLane="best" from="-369907196#8" id="truck277" to="661786914#2" type="truck_truck" />
    <trip depart="165.22" departLane="best" from="37253817" id="truck278" to="430128409" type="truck_truck" />
    <trip depart="165.81" departLane="best" from="39053438#0" id="truck279" to="237470831#0" type="truck_truck" />
    <trip depart="166.41" departLane="best" from="401300455#2" id="truck280" to="679174374" type="truck_truck" />
    <trip depart="167.00" departLane="best" from="-59515641#1" id="truck281" to="430114472#1" type="truck_truck" />
    <trip depart="167.59" departLane="best" from="27238962#1" id="truck282" to="269678076#0" type="truck_truck" />
    <trip depart="168.78" departLane="best" from="-587918116#1" id="truck284" to="438470923" type="truck_truck" />
    <trip depart="169.38" departLane="best" from="427400778#0" id="truck285" to="-27644479" type="truck_truck" />
    <trip depart="169.97" departLane="best" from="4615022#1" id="truck286" to="-75479791" type="truck_truck" />
    <trip depart="171.16" departLane="best" from="183853715#1" id="truck288" to="-184753515" type="truck_truck" />
    <trip depart="171.75" departLane="best" from="436325257" id="truck289" to="-427400670#0" type="truck_truck" />
    <trip depart="172.94" departLane="best" from="157188563#8" id="truck291" to="465984314" type="truck_truck" />
    <trip depart="174.73" departLane="best" from="-27660302#2" id="truck294" to="424210747#2" type="truck_truck" />
    <trip depart="175.32" departLane="best" from="241318602#3" id="truck295" to="425934934#0" type="truck_truck" />
    <trip depart="175.91" departLane="best" from="39048451#1" id="truck296" to="38841784#0" type="truck_truck" />
    <trip depart="176.51" departLane="best" from="244923471#1" id="truck297" to="427243062#4" type="truck_truck" />
    <trip depart="177.10" departLane="best" from="-28807488#0" id="truck298" to="-517454500" type="truck_truck" />
    <trip depart="177.70" departLane="best" from="39048475#1" id="truck299" to="16653270#3" type="truck_truck" />
    <trip depart="178.29" departLane="best" from="278992351#2" id="truck300" to="255845157#0" type="truck_truck" />
    <trip depart="178.89" departLane="best" from="27030031#4" id="truck301" to="237003876#0" type="truck_truck" />
    <trip depart="179.48" departLane="best" from="423976020#0" id="truck302" to="181593980#0" type="truck_truck" />
    <trip depart="180.08" departLane="best" from="39053410" id="truck303" to="131628104#3" type="truck_truck" />
    <trip depart="181.26" departLane="best" from="-427400858" id="truck305" to="-38570166#0" type="truck_truck" />
    <trip depart="181.86" departLane="best" from="27030139#0" id="truck306" to="426505699" type="truck_truck" />
    <trip depart="183.05" departLane="best" from="239019893#2" id="truck308" to="424211755#3" type="truck_truck" />
    <trip depart="183.64" departLane="best" from="76791576#5" id="truck309" to="27644488#1" type="truck_truck" />
    <trip depart="184.24" departLane="best" from="-77687932#0" id="truck310" to="-337865808#2" type="truck_truck" />
    <trip depart="184.83" departLane="best" from="-427400913" id="truck311" to="-56394532#0" type="truck_truck" />
    <trip depart="186.02" departLane="best" from="27030106" id="truck313" to="131655877" type="truck_truck" />
    <trip depart="187.80" departLane="best" from="448210019#3" id="truck316" to="27030066#5" type="truck_truck" />
    <trip depart="188.40" departLane="best" from="450878338#1" id="truck317" to="339103686" type="truck_truck" />
    <trip depart="190.18" departLane="best" from="59515645#2" id="truck320" to="262460754#2" type="truck_truck" />
    <trip depart="190.77" departLane="best" from="427243102#1" id="truck321" to="230784085#1" type="truck_truck" />
    <trip depart="191.37" departLane="best" from="-27587528#1" id="truck322" to="38570166#2" type="truck_truck" />
    <trip depart="191.96" departLane="best" from="-244936654#3" id="truck323" to="-39078041#0" type="truck_truck" />
    <trip depart="192.56" departLane="best" from="27644477#0" id="truck324" to="165472953" type="truck_truck" />
    <trip depart="193.15" departLane="best" from="8579208#1" id="truck325" to="-38508521" type="truck_truck" />
    <trip depart="194.34" departLane="best" from="426505711#1" id="truck327" to="-558094274" type="truck_truck" />
    <trip depart="194.93" departLane="best" from="231226535#0" id="truck328" to="448209065#0" type="truck_truck" />
    <trip depart="195.53" departLane="best" from="8578850#0" id="truck329" to="16651445#1" type="truck_truck" />
    <trip depart="197.31" departLane="best" from="-430127813#0" id="truck332" to="-465895356#0" type="truck_truck" />