<routes xmlns:xsi="http://www.w3.org/2001/XMLSchema-instance" xsi:noNamespaceSchemaLocation="http://sumo.dlr.de/xsd/routes_file.xsd">
    <vType id="truck_truck" vClass="truck" />
    <vehicle depart="0.00" departLane="best" id="truck0" type="truck_truck">
        <route edges="37538131#3 -293597698#3 35472694#0 77707877 565483610#0 565483612 172744259#1 -59515639 -39051672#1 -39051672#0 172743779 537956236 -60685694#0 -172745429#3" />
    </vehicle>
    <vehicle depart="0.59" departLane="best" id="truck1" type="truck_truck">
        <route edges="-638729328#0 -14521675#3 27691796#4 -427243115#0 -427243117#1 -427243117#0 638729322#2 638729322#3 638729322#4 638729322#5 638729322#6 638729322#7 638729322#8 638729322#9 638729322#10 638729322#11 577924801 28725762 176499525 241249712#8 241249712#10 427400766#1 427400766#3 427400867#2 477789804#0 38738779#0 38738779#1 38738774#3 38738764#0 38738764#1 -430124251 -330594187#0 -53826080#0" />
    </vehicle>
    <vehicle depart="1.19" departLane="best" id="truck2" type="truck_truck">
        <route edges="405489977#1 27030077#0 -27030153 27030139#1 -405489977#0 -27030148#2 -27030148#1 -27030148#0 38738777#0 38738777#1 38738776#0 38738776#1 38738776#2 363528979#0 363528979#1 363528979#2 246708373 38738780 62268206 211456024 211456026#0 577924800#2 577924800#4 28725760#0 28725760#1 28725760#2 241318604#0 241318604#1 230628539#0 230628539#1 230628539#2 231341013#0 231341013#1 231341013#2 231341013#3 230628530#0 230628530#1 230628530#2 230628530#3 230628530#4 635399925 230628530#7 230628533#0 230628533#1 230628533#2 230628533#3 230628533#4 423987651#0 423987651#1 423987651#2 423987650#0 423987650#1 230628517#0 230628517#1 230628517#2 230628517#3 230628517#4 230628517#6 230628517#7 230628534#1 230628534#2 196799732 230783567#1 230783567#2 230783567#3 186496572#0 186496572#1 186496572#2 186496572#3 186496572#4 37909831 244739181 437233641 79159521 -184765910 358278701 184765909#0 244923481 -184765907 -598422932 -37909827#3 -37909827#2 -184745785#1 -184745785#0 37909825#2 238318430#1 238318430#2 39056431 238318429#1-AddedOnRampEdge 238318429#1 -469728272 -39056479#1 -39056476#3 -39056476#2 -39056476#1 39056456#0" />
    </vehicle>
    <vehicle depart="1.78" departLane="best" id="truck3" type="truck_truck">
        <route edges="476994770 8579726 231226535#1 454692163 454692167#0 454692167#1 195270962 454697529#0 454697529#1 454693652 454698074 333172735#1 333172735#3 333172735#5 333172735#6 333172735#7 333172735#8 329613766#0 329613766#1 237587407#0 237587407#1 237587407#3 237587407#4 237587407#5 454576377#0 454576377#1 424211021#0 424211021#2 424211021#3 424211021#4 211556987#8 211556987#9 211556987#10 211556987#11 211556987#12 230628532#0 230628532#1 424211533 230784038#0 230784038#1 230784024 230784029#0 230784029#1 230784029#2 230784034 230784037 230784035 516406073 14406970#0 14406970#1 14406970#2 417676407 407754202 230784086#0 230784086#1 370514753#0 370514753#1 27644520#0 27639641#0 27639641#1 27639641#2 373580563 661786919#3 -27644487#2" />
    </vehicle>
    <vehicle depart="2.38" departLane="best" id="truck4" type="truck_truck">
        <route edges="229480219#0 229480219#1 629122328 427253359#0 684774258 172297064#0 172297064#1 172297064#2 172297064#3 426505728#0 426505728#1 426505728#2 426505728#3 28712212#1 185627509#0 185627509#1 185627512#0 185627512#1 339106275 -185627527#2 -185627527#1 -185627527#0" />
    </vehicle>
    <vehicle depart="2.97" departLane="best" id="truck5" type="truck_truck">
        <route edges="-431546440 128515109#5 37916449#0 37916449#1 429353540#0 272898748 272898745 128508563#0 128508563#1 128508563#2 128508563#3 128508563#4 128508563#5 128508563#6 128508563#7 128508563#8 128508563#9 230398376 17446828 237048431 235497116 168667916 278920581 241926086 565519143 72921505 524255618#0 524255618#1 14409243 554707179#1 454570248 454570251 454693651 454697529#0 454697529#1 454693652 454698074 333172735#1 333172735#3 333172735#5 333172735#6 333172735#7 333172735#8 329613766#0 329613766#1 237587407#0 237587407#1 237587407#3 237587407#4 237587407#5 454576377#0 454576377#1 454576376#0 418821252#1 405489974#1 405489974#3 405489974#4 405489974#5 405489974#6 407769038#2 9931243 262851659 8148347 513802091 262851657#0 262851657#1 262851657#2 262851657#3 262851657#4 423517227#1 423517227#2 423517339#0 614007812 284347438#0 284347438#1 450833652#0 450833652#1 231345864 231345866 451601406 329262587#0 329262587#1 329261736#1 280118519#1 280118519#2 280118519#3 280118519#6 280118519#7 280118519#8 329094182#1 229480983#1 229480983#2 172308673#1 27639582#0 27639582#1 27639582#2 369907199#6 369907199#7 369907199#8 27587527 -277478970#2 -277478970#1 -277478970#0 -277478966 277478965#0 436333202 27587523 27587518#1 27587520" />
    </vehicle>
    <vehicle depart="4.16" departLane="best" id="truck7" type="truck_truck">
        <route edges="37916421#5 521381109#0 521381109#1 521381109#2 521381109#3 521381109#4 237048437#0 237048437#1 37916452#0 37916452#1 37916452#2 37916452#3 447007234#0 447007234#1 447007234#2 447007234#3 429353540#0 272898748 272898745 128508563#0 128508563#1 128508563#2 128508563#3 128508563#4 128508563#5 128508563#6 128508563#7 128508563#8 128508563#9 230398376 17446828 237048431 235497116 168667916 424630809#0 424630809#1 -172728802#2 -172728802#1 -172728802#0 424630860#9 424630823 279753892#0" />
    </vehicle>
    <vehicle depart="4.75" departLane="best" id="truck8" type="truck_truck">
        <route edges="-431548666#1 -431548665 37916494#5 37916527#2 37916527#3 128508563#3 128508563#4 128508563#5 128508563#6 128508563#7 128508563#8 128508563#9 230398376 17446828 237048431 235497116 128519863#0 128519863#1 229739163 212723119#1 212723119#3 565903323#0 565903323#1 128519864 211060895 237212803#0 237212803#1 237212803#2 237212803#3 -211061213#1 -211061213#0 -211455037#3 -211455037#2 -211455037#1 -211455037#0 60252054 -244936600 -244936602 -211455035#4 -211455035#3 -211455035#2 -211455035#1 -211455035#0 -27030148#2 -27030148#1 -27030148#0 38738777#0 38738777#1 38738776#0 38738776#1 38738776#2 363528979#0 363528979#1 363528979#2 246708373 38738780 62268206 211456024 211456026#0 577924800#2 577924800#4 8578611 427243067 426927728#0 426927728#1 426927728#2 426927728#3 426927728#5 425942465#1 426927766#1 27668372#0 27668372#1 425942461 -425942443#2 -425942443#1 -425942443#0 8547794#0 8547794#1 8547794#2 415845846 325044597#0 325044597#1 351360736 325044599#0 325044599#2 125451184#0 255818947#0 439768950#0 8149120#0 8149120#1 8149120#2 8149120#3 8149120#4 231350472#1 427018817#1 427018817#2 427018758#3 427018758#4 427018758#5 427018829#3 427018829#4 427018831 369915384#2 255845157#0 255845157#1 124962721#0 27639645#1 661786919#2 661786919#3 661786919#4 679174375#0 679174375#2 679174374 -436333204 436333206#1 436333206#3 679174597 -27639585#5 -27639585#4 -27639585#3 -27639585#2 -27639585#1 -27639585#0 185783795#12 185783795#13 369907195#1 369907195#2" />
    </vehicle>
    <vehicle depart="5.35" departLane="best" id="truck9" type="truck_truck">
        <route edges="426696442 426696453#1 426696453#2 426602669 426602671#0 426602671#1 679182701#0 679182701#1 -255818924#0 324839764 -415845845 -14521385#0 28788350#0 28788350#1 211456025 460071969 638729322#0 638729322#2 638729322#3 638729322#4 638729322#5 638729322#6 638729322#7 638729322#8 638729322#9 638729322#10 638729322#11 577924801 28725762 176499525 241249712#8 241249712#10 427400766#1 427400766#3 427400867#2 -427400930 -363528979#1 -363528979#0 -38738605#6 -38738605#5 -38738605#4 -38738605#2 -38738605#1 27030148#1 27030148#2 211455040 244936702#0 244936702#1 244936702#2 211455038 56394532#0 56394532#1 56394532#2 39082313#0 39082313#1 39082313#2 39082313#3 427400926#2 39082302#1 39082331#0 39082331#1 39082331#3 39082331#4 39082331#5 39082331#6 39082331#7 39082331#8 39082331#9 39082331#10 39082331#11 39082331#12 39082331#13 39082331#14 56394527 241249700#0 241249700#1 645595745 645595744#0 645595744#2 -131628109#3 -131628109#2 37808168#0 -131628108#1 -131628108#0" />
    </vehicle>
    <vehicle depart="5.94" departLane="best" id="truck10" type="truck_truck">
        <route edges="426696411 230628531#0 230628531#1 230628531#2 241318602#0 241318602#1 241318602#2 241318602#3 230628520#0 230628520#1 261785599#0 261785599#1 261785599#2 261785599#3 230628521#0 230628521#1 230628521#2 230628521#3 231390618#0 231390618#1 231390618#2 231390618#3 231390618#4 577924799#0 577924799#1 684436583#0 684436583#1 684436583#2 684436577 28885048#1 28885048#2 236120864 684441565 231284704#1 231284704#2 231284704#3 246848876#0 246848876#1 246848876#2 246848876#3 39117764#0 39117764#1 39117764#2 39117764#3 39117758#0 39117758#1 39117758#2 39117758#3" />
    </vehicle>
    <vehicle depart="7.13" departLane="best" id="truck12" type="truck_truck">
        <route edges="661786906#0 661786906#1 661786906#2 661786906#3 661786906#4 124962724#0 124962724#1 255845158#0 27570521#0 27570521#1 27570521#2 27570521#3 27570521#4 427018862#0 427018862#1 427018862#2 427018862#3 427018862#4 427018864#1 231350482#1 231350482#2 231350482#3 418365018#1 418365018#2 -517676964 -324839764 255818924#0 255818924#1 255818924#2 255818924#3 255818924#4 255818924#5 255818924#6 255818924#7 255818924#8 255818924#9 255818924#11 255818924#13 255818924#14 255818924#15 255818924#16 183853709 183853700#0 183853700#1" />
    </vehicle>
    <vehicle depart="7.73" departLane="best" id="truck13" type="truck_truck">
        <route edges="-283003800 -39014080#2 -39014080#1 -39014080#0 39014089#2 39014089#3 -293597698#1 -293597698#0 -396622998 -294108450#1" />
    </vehicle>
    <vehicle depart="8.91" departLane="best" id="truck15" type="truck_truck">
        <route edges="426696421#4 426696421#5 426603437#0 426601875 359790104#0 359790104#1 359790104#2 426696416#1 369467064#1 369467064#2 231355591#0 474493463#0 493367006#0 493367006#1 493367006#2 424211753#0 424211753#1 424211753#2 230784029#0 230784029#1 230784029#2 230784034 426511156 426511888#7 426511384#1 424222641" />
    </vehicle>
    <vehicle depart="9.51" departLane="best" id="truck16" type="truck_truck">
        <route edges="27030139#4 -244936695 -244936602 -211455035#4 -211455035#3 -211455035#2 -211455035#1 -211455035#0 -27030148#2 -27030148#1 -27030148#0 38738777#0 38738777#1 38738776#0 38738776#1 38738776#2 363528979#0 363528979#1 363528979#2 246708373 38738780 62268206 211456024 211456026#0 577924800#2 14406394#0 14406394#1 14406394#3 422062695#0 422062695#1 231715377 231715374#0 231715374#0-AddedOffRampEdge 231715374#1 231715370 231715375#0 231715375#1 38631708 72767342-AddedOnRampEdge 72767342 38631710 72614035#0 231713630#1 425934198#3 425934196#0 425934196#1 72614013#1 72614013#2 72767330" />
    </vehicle>
    <vehicle depart="10.10" departLane="best" id="truck17" type="truck_truck">
        <route edges="183853693#2 439765511 72614063 38631698 38631699#5 27666905#0 27666905#1 71958447#3 71958447#4 71958447#5 71958447#6 71958447#7 72767350 72767317#1 72767317#2 428721903 424210747#0 211556987#10 211556987#11 211556987#12 230628534#1 230628534#2 196799732 577995980 577995980-AddedOffRampEdge 260203873 128894336#0 128894336#1 184742325-AddedOnRampEdge 184742325 8578556 244923470#0 244923470#1 231404787#2 231404787#3 231404787#4 154421013 422885344 154421014#0 154421014#1 247027160 231404788#1 231404788#2 231404788#3 167131057#0 167131057#1 167131058#0 167131058#1 14520294 16257975#0-AddedOnRampEdge 16257975#0 16257975#1 -438224045 -39049665#1 -39049665#0 172744182#0 172744182#1 237455928#0 237455928#1 237455929 123374521#0 237455898#4 237455898#7 237455898#8 -194545764 -293597698#4 -293597698#3 -293597698#2 -293597698#1 37538160#0 79171267 -37538137#0 293597698#3" />
    </vehicle>
    <vehicle depart="10.70" departLane="best" id="truck18" type="truck_truck">
        <route edges="427400681#3 334003221#0 334003221#1 -38738605#9 -430124252 334003225#1 -430124253 363528979#1 363528979#2 246708373 427400671#3 427400671#4 427400671#5 427400671#6 27030066#0 27030066#1 27030066#2 27030066#3 27030066#4 27030066#5 27030066#6 27030066#7 27030066#8 27030066#9 211061213#0 211061213#1 211061210#0 211061210#1-AddedOnRampEdge 211061210#1 39081434#0 39081434#1 39081434#2 39081434#3 39081434#4 -128519864 79669498#0 79669498#1 128511291#0 128511291#1 128511291#2 620987193#0 620987193#1 435973648 435973649#1 435973649#2-AddedOnRampEdge 435973649#2 435973649#2-AddedOffRampEdge 128515120 -230398377 34436961 37916485#1 37916485#2 34436962 -128508551#1 -128508551#0 37916494#0 37916494#1 37916494#2 128508555#3 38709150 37916524#2" />
    </vehicle>
    <vehicle depart="11.89" departLane="best" id="truck20" type="truck_truck">
        <route edges="-436646700 27733787#4 27733787#5 325015629#2 27333554#1 27333554#2 325320427#4 325320427#5 325320427#6 27639562 661786908 661786910 661786917 661786915#0 661786915#1 661786915#4 520283614#0 520283614#1 27639633#0 -436333204 436333206#1 436333206#3 679174597 -27639585#5 -27639585#4 -27639585#3 -27639585#2 -27639585#1 -27639585#0 185783795#12 185783795#13 369907195#1 369907195#2 369907195#3 369907195#4 369907195#6 369907195#7 369907195#8 255792502#0 401011169#2 401011169#3 439631884 369907203#0 369907203#2 369907203#3 369907203#5 369907207#0 369907207#1 369907207#4 369907207#5 369907210#1 244739220 212554514#0 212554514#1 212554514#2 212554508 14519876#1" />
    </vehicle>
    <vehicle depart="13.07" departLane="best" id="truck22" type="truck_truck">
        <route edges="-33968289 -228990067 667037976#0 667037976#1 667037976#2 667037976#3 667037976#4 667037976#5 487613356#0 487613356#1 487613356#2 487613358 183853728#0 183853728#1 183853728#3 517410414#0 62268206 211456024 211456026#0 577924800#2 14406394#0 14406394#1 14406394#3 422062695#0 422062695#1 231715377 231715374#0 231715374#0-AddedOffRampEdge 231715374#1 231715370 231715375#0 231715375#1 38631708 72767342-AddedOnRampEdge 72767342 38631710 72614035#0 231713631#0 425929162#0 425929162#0-AddedOffRampEdge 425929162#1 425929162#2 278916131 199121003 62265344#0 62265344#1 62265345#1 133124798#0 133124798#1 8579904#0 8579904#1 134362685#0 134362685#1 405495014#0 405495014#1 603688830#0 603688830#1 230621491 8579917 409861830#0 454570252#1 133125089" />
    </vehicle>
    <vehicle depart="14.26" departLane="best" id="truck24" type="truck_truck">
        <route edges="172868866 172747396#0 172747396#1 172747396#2 172747396#3 401300455#6 401300455#7 401300455#8 401300455#9 28807664#2 28807664#3 28807664#4 28807664#6 8431670#1 39049597#0 39049597#1 39049613 337854427 185627528 185627524#1 185627516 185627509#1 339106277 185627525 128027697#0 128027697#1 351751479 171848925#0 171848925#1 16765621#2 167131039#0 167131039#1 167131031 231404792#0 247061290#0 172297055 196799730#0 196799730#1 196799730#2 196799730#3 196799730#4 196799730#5 196799730#6 8578537#0 129439666 426510831 9931242#0 255838497#3 255838497#4 255838497#5 230637724#1 199890396#0 199890396#2 199890396#3 199890396#5 199890396#6 199890396#7 199890396#8 199890396#9 230628805#0 230628805#1 230628805#2 230628805#4 230628805#5 230628805#6 211556988 454576378 333172873 255838496#0 255838496#2 255838496#3 255838496#4 454570247 454570246 454570245 289936233 454570243 48661212#0 470252930#0 470252930#1 470252930#2 470252930#3 48661200#1 425850165#1 425850171#0 425850171#1 369630800 46892381#0 46892381#1 46892381#2 425456021 8579093#0 8579093#1 234827311#1 234827311#2 252274190 46927935#0 46927935#1 46892577#0 46927933#0 46927933#1 -22999494 8579406 141294961#0 141294961#2 141294961#3 141294961#4 424630807#1 424630819#6 278920581 241926086 16975627 454557950 -454557952" />
    </vehicle>
    <vehicle depart="14.86" departLane="best" id="truck25" type="truck_truck">
        <route edges="37916372#0 37916372#1 237048502#1 237048502#2 237048502#3 245958752#0 245958752#2 245958755 51835024 8579876#0 231230647#0 231230647#1 235369618 425691414#0 425691414#1 425691414#2 167147474 244936623 25619255#1 425691401#0 425691401#1 425691418#0 425691443 425691444#0 425691444#1 425691408 237455906 426247930#0 426247930#1 324839763 568491295 8103462 425455995 324535432 425455982#1 8103473#0 8103473#1 521260225 48651839 8579495 8579488#0 8579488#1 251628568#0 251628568#0-AddedOffRampEdge 251628568#1 251628568#2-AddedOnRampEdge 251628568#2 14408299#1 48651843#0 48651843#1 48661215#1 -425869965 -134364076#0 179551764 133125062#2 251629004#0 251629004#1 586624080 133124802 133124801#0 133124801#1 454680854#0 454680854#1 211556987#0 211556987#1 211556987#2 211556987#4 211556987#6 16257589#0 16257589#1 37909863#0" />
    </vehicle>
    <vehicle depart="15.45" departLane="best" id="truck26" type="truck_truck">
        <route edges="-424630842 -8579169#2 -8579169#1 -8579169#0 -16975352 565942869 211060855#0 211060855#1 211060855#2 231281388#2 196799738#0 425927089 428111149#0 428111149#1 16652239 425927090 197054866#2 -197054862 -425926837 -425926838 -425930849#1 -425930849#0 -231341699#1 -231341699#0 -425930850#0 -425930847 -425930848 -578707887#2 -578707887#1 -578707887#0 -196799728 -217333504 -439765511 -183853693#2 -183853693#1 -577926287#4 38630646 71958447#2 71958447#3 71958447#4 71958447#5 71958447#6 71958447#7 72767350 72767317#1 72767317#2 428721903 424210747#0 211556987#10 211556987#11 211556987#12 230628532#0 230628532#1 424211533 230784038#0 230784038#1 230784024 230784029#0 230784029#1 230784029#2 230784034 426511156 426511154#0 426511154#1 426511154#2 424217266#4 424217266#5 284347441#3 424217366#3" />
    </vehicle>
    <vehicle depart="16.64" departLane="best" id="truck28" type="truck_truck">
        <route edges="8578569#1 8578569#2 8578569#3 230628536#0 230628536#1 230628536#2 230628536#3 230628536#4 230628536#5 230628536#6 230628531#0 230628531#1 230628531#2 241318602#0 241318602#1 241318602#2 241318602#3 230628520#0 230628520#1 261785599#0 261785599#1 261785599#2 261785599#3 230628521#0 230628521#1 230628521#2 230628521#3 231390618#0 231390618#1 231390618#2 231390618#3 231390618#4 577924801 28725762 176499525 241249712#8 241249712#10 427400766#1 427400766#3 427400867#2 -427400930 -363528979#1 430124253 -334003225#1 430124252 38738605#9 38738605#10" />
    </vehicle>
    <vehicle depart="17.23" departLane="best" id="truck29" type="truck_truck">
        <route edges="27639627#0 27639577#0 27639577#1 27639577#2 280118522#3 420384665 632976630#0 632976630#1 632976630#2 436488791#0 436488791#1 16326434#0 16326434#1 16326434#2 16326434#5 16326434#6 16326434#7 27570521#0 27570521#1 27570521#2 27570521#3 27570521#4 427018862#0 427018862#1 427018862#2 427018862#3 -255905293#1 436488790 231350474#1 4567096 234731992#0 321139490#0 4567105 8547798#0 401762565#0 401762565#1 -325044600#0 211456025 460071969 638729322#0 -427243116#0 -125451142#2 -125451142#1 -125451142#0 425942465#1 426927766#1 27668372#0 27668372#1 39080241 39080244#4" />
    </vehicle>
    <vehicle depart="18.42" departLane="best" id="truck31" type="truck_truck">
        <route edges="-438225728 -39053436#0 39053434#1 -39053432#2 39053438#2 16257975#4 16257975#5 -19796858#2 -19796858#1 172744182#1 -237455934#3 -172745482#1 -39048446 39048442#2 79765660 237455916 237455926#0 -59515636 -39048489#4 -39048489#3 -39048489#2 172746245 -192583210#4 -192583210#3 -192583210#2 -192583210#1" />
    </vehicle>
    <vehicle depart="19.02" departLane="best" id="truck32" type="truck_truck">
        <route edges="131655872 299532297#1 299532297#2 299532297#3 299532297#4 299532297#5 672784703#4 672784703#5 251712234#0 251712234#1 27029988 278992352#0 27029997#7 27029997#8 27029997#9 -545465138#2 27030139#0 27030139#1 -405489977#0 -27030148#2 -27030148#1 -27030148#0 38738777#0 38738777#1 38738776#0 38738776#1 38738776#2 363528979#0 363528979#1 363528979#2 246708373 38738780 62268206 211456024 211456026#0 577924800#2 577924800#4 28725760#0 28725760#1 28725760#2 241318604#0 241318604#1 230628539#0 230628539#1 230628539#2 231341013#0 231341013#1 231341013#2 231341013#3 230628530#0 230628530#1 230628530#2 230628530#3 230628530#4 635399925 230628530#7 230628533#0 230628533#1 230628533#2 230628533#3 230628533#4 423987651#0 423987651#1 423987651#2 423987650#0 423987650#1 230628517#0 230628517#1 230628517#2 230628517#3 230628517#4 230628517#6 230628517#7 230628534#1 230628534#2 196799732 230783567#1 230783567#2 230783567#3 186496572#0 186496572#1 186496572#2 186496572#3 186496572#4 128675561#0" />
    </vehicle>
    <vehicle depart="19.61" departLane="best" id="truck33" type="truck_truck">
        <route edges="-430128044 -27030089#6 27030106 27030002#0 27030002#1 -278992347 27029997#8 27029997#9 -545465138#2 27030139#0 27030139#1 -405489977#0 -27030148#2 -27030148#1 -27030148#0 38738777#0 38738777#1 38738776#0 38738776#1 38738776#2 363528979#0 363528979#1 363528979#2 246708373 38738780 62268206 211456024 211456026#0 577924800#2 14406394#0 14406394#1 14406394#3 422062695#0 422062695#1 231715377 231715374#0 231715374#0-AddedOffRampEdge 231715374#1 231715370 231715375#0 231715375#1 38631708 72767342-AddedOnRampEdge 72767342 38631710 72614035#0 231713630#1 425925610 425923721#0 425923721#1 425923721#2 577909640#1 425929193 425929192 -37909866#1 -37909866#0 589515206#9 589515206#10" />
    </vehicle>
    <vehicle depart="20.21" departLane="best" id="truck34" type="truck_truck">
        <route edges="454570251 454693651 454697529#0 454697529#1 454693652 454698074 424396207#0 424396207#1 424396207#2 424396207#3 27238788#0 27238788#1 27238788#2 27238788#3 -428733941 -230629149 428733944 358278706#0 358278706#1 34436958#1 34436958#2 -423496969 230629147#0 230629147#1 230629147#2 230629147#3 230629147#4 448210017 38585129#0 38585129#1 38585129#2 184769988 171847846#0 -39077896#2 171847846#2 171847846#3 171847846#4 171847846#5" />
    </vehicle>
    <vehicle depart="20.80" departLane="best" id="truck35" type="truck_truck">
        <route edges="37916531#1 128194053#0 37916511#0 37916511#1 37916527#1 37916527#2 37916527#3 128508563#3 128508563#4 128508563#5 128508563#6 128508563#7 128508563#8 128508563#9 230398376 17446828 237048431 235497116 168667916 278920581 241926086 565519143 72921505 38508528 366428463#1 425934930 46892970#1 454561009#1 46892969#4 46892969#5 -278916129#2 -278916129#1 199121003 62265344#0 62265344#1 62265345#1 586624080 133124802 133124801#0 133124801#1 454680854#0 454680854#1 211556987#0 211556987#1 211556987#2 230593245 230593246 230628805#0 230628805#1 230628805#2 230628805#4" />
    </vehicle>
    <vehicle depart="21.40" departLane="best" id="truck36" type="truck_truck">
        <route edges="524255618#0 524255618#1 14409243 454570246 454570245 289936233 454570243 48661212#0 470252930#0 470252930#1 470252930#2 470252930#3 48661200#1 425850165#1 425850171#0 425850171#1 369630800 46892381#0 46892381#1 46892381#2 425456021 8579093#0 8579093#1 234827311#1 234827311#2 252274190 8103465#0 8103465#1 223479041#0 223479041#1 8103470#0 8579183 211060852#0 211060852#1 211060852#2 8579184 196799745#1 8579185 -189938124 211060857#0 211060857#1-AddedOnRampEdge 211060857#1 -211060895 -128519864 79669498#0 79669498#1 128511291#0 128511291#1 128511291#2 128511291#3 237169411 310454389 37916642#1 37916642#2 37916655#0 37916655#1 157187728 183752953 183752954#0 183752954#1 183752954#2 237587397#0 237587397#1 237587397#2 649598137 27030124#0 27030124#1 622455877 246307536#0" />
    </vehicle>
    <vehicle depart="21.99" departLane="best" id="truck37" type="truck_truck">
        <route edges="-560269842#1 560269841 172297666#2 -426507056 229480632#0 229480632#1 284347439#3 284347439#4 450878336 450878337#0 229480221#0 229480221#1 426510606 262851660#0 262851660#1 262851660#2 262851660#3 672491572 262851658 4534456 129439666 426510831 8578563#0 8578563#1 8090812 578287066#0 578287066#2 196799733#0 196799733#1 230628541#0 230628541#1 230628541#2 230628541#3 230628541#4 230628541#5 230628537#0 230628537#1 230628537#2 230628537#3 230628537#4 230628537#5 230628537#6 230628537#7 282974683#0 282974683#1 230628536#0 230628536#1 230628536#2 230628536#3 230628536#4 230628536#5 230628536#6 230628531#0 230628531#1 230628531#2 241318602#0 241318602#1 241318602#2 241318602#3 230628520#0 230628520#1 261785599#0 261785599#1 261785599#2 261785599#3 230628521#0 230628521#1 230628521#2 230628521#3 231390618#0 231390618#1 231390618#2 231390618#3 231390618#4 577924801 28725762 176499525 231281377#0 38738786 427400671#6 27030066#0 27030066#1 27030066#2 27030066#3 27030066#4 27030066#5 -79162696" />
    </vehicle>
    <vehicle depart="22.58" departLane="best" id="truck38" type="truck_truck">
        <route edges="27639664#1 27644484#0 27644484#1 14520855 231350473#0 231350473#1 14520867 14520983 576954816#0 576954816#1 576954816#2 576954816#3 337865806 27660307 407757111#0 407757111#1 407757111#2 -14521385#0 28788350#0 28788350#1 211456025 460071969 638729322#0 638729322#2 638729322#3 638729322#4 638729322#5 638729322#6 638729322#7 638729322#8 638729322#9 638729322#10 638729322#11 577924801 28725762 176499525 231281377#0 38738786 427400671#6 27030066#0 27030066#1 27030066#2 27030066#3 27030066#4 27030066#5 27030066#6 27030066#7 27030066#8 27030066#9 211061213#0 211061213#1 211061210#0 211061210#1-AddedOnRampEdge 211061210#1 246708371 211061212 -27030009 -430126494#1 -27030017#3 -27030017#2 -27030017#1 -27030017#0 310454395#1 310454395#2 310454395#3 37916655#0 37916655#1 62267044 183462542#1 -27238962#3 -27238962#2 -27238962#1 -142906167#1 -130808660#2 310454387#1 310454387#2 310454387#3 128511294#0" />
    </vehicle>
    <vehicle depart="24.37" departLane="best" id="truck41" type="truck_truck">
        <route edges="85796595 85796593#0 85796593#1 85796593#2 359790120#0 359790120#1 359790120#2 359790120#3 301151225#0 301151225#1 426607367 27644488#0 27644488#1 359790117#0 359790117#1 407755669 231350458#0 231350458#1 231350458#2 231350458#3 231350477#0 231350477#1 230784085#0 230784085#1 230784085#3 231350452#1 231350480#1 231350480#2 428102023#0 428102023#1 428102023#2 27639628#1 -369907196#10 436333193 -679174870 27639627#0 27639577#0 27639577#1" />
    </vehicle>
    <vehicle depart="26.15" departLane="best" id="truck44" type="truck_truck">
        <route edges="426505724#1 16238213#0 16238213#1 16238213#2 171846832 261539842 261539837 134462240#1 134462240#2 465742453 449611216#0 449611216#1 449611216#1-AddedOffRampEdge 39056472#0 39056472#1 475369361#0 475369361#1 247061292 171847637 171847607#1 171847607#2 171847607#3 -171847845#4 -171847845#3 -171847845#2 -171847845#1 -171847845#0 231404622 448210016 171847941#0 171847941#0-AddedOffRampEdge 171847941#1 171847941#2 171847964#0 171847964#1 597462036 312277539 15808047#0 15808047#1 15808064#1 15808064#2 423496969 358278704#0 358278704#1 423497710#0 423497710#1 424410718 424415196#1 424415196#2 424419378#4 424419378#5 424419378#6 424419378#7 424389521#0 424389521#1 424389521#2 409861328#1 409861330#0 409861330#1 68280131#0 230621491 8579917 231226534 409861831#0 409861831#1 409861831#2 470252928 48661202#1 425850168 46892383 470252931 425846511#0 425846511#1 425849973 8579093#0 8579093#1 234827311#1 234827311#2 252274190 46927935#0 46927935#1 46892577#0 46927933#0 46927933#1 447117762#0 447117762#1 447117762#2 447117762#3 37916545 212723117#0 212723117#1 212723117#3 235497116 128519863#0 128519863#1 235497117#0" />
    </vehicle>
    <vehicle depart="26.74" departLane="best" id="truck45" type="truck_truck">
        <route edges="-27030008#1 430126494#0 430126494#1 27030009 -211061212 39081435 39081434#1 39081406#0 237212803#1 237212803#2 237212803#3 -211061213#1 -211061213#0 -211455037#3 -211455037#2 -211455037#1 -211455037#0 60252054 -244936600 -244936602 -211455035#4 -211455035#3 -211455035#2 -211455035#1 -211455035#0 -27030148#2 -27030148#1 -27030148#0 38738777#0 38738777#1 38738776#0 38738776#1 38738776#2 363528979#0 363528979#1 363528979#2 246708373 38738780 62268206 211456024 211456026#0 577924800#2 577924800#4 8578611 427243067 426927728#0 426927728#1 426927728#2 426927728#3 426927728#5 425942465#1 426927766#1 27668372#0 27668372#1 425942461 -425942443#2 -425942443#1 -425942443#0 8547794#0 8547794#1 8547794#2 415845846 325044597#0 325044597#1 351360736 325044599#0 325044599#2 125451184#0 255818947#0 439768950#0 8149120#0 8149120#1 8149120#2 8149120#3 8149120#4 231350472#1 427018817#1 427018817#2 427018758#3 427018758#4 427018758#5 427018829#3 427018829#4 427018831 369915384#2 255845157#0 255845157#1 124962721#0 27639645#1 661786919#2 661786919#3 661786919#4 679174375#0 679174375#2 679174374 -436333204 436333206#1 436333206#3 679174597 -27639585#5 -27639585#4 -27639585#3 -27639585#2 -27639585#1 27639600 369907196#1 -172308673#5 -172308673#4 -172308673#3 -172308673#2 -172308673#1 229480983#3 229480983#4" />
    </vehicle>
    <vehicle depart="27.34" departLane="best" id="truck46" type="truck_truck">
        <route edges="8579499 48651839 46927928#0 46927928#1 46927928#2 425458286#0 425458286#1 425458285 262851680#0 262851680#1 8103485 324535432 46892385 48802843 48802837 321139485#0 321139485#1 -251628553 -425846506 -217333505#0 -251628555 -456287380 -72916497 -196799729#1 -196799729#0 -197054862 -425926837 -425926838 -425930849#1 -425930849#0 -231341699#1 -231341699#0 -425930850#0 -425930847 -425930848 -578707887#2 -578707887#1 -578707887#0 -196799728 -217333504 -439765511 -183853693#2 -183853693#1 -577926287#4 38630646 71958447#2 27666905#2" />
    </vehicle>
    <vehicle depart="28.53" departLane="best" id="truck48" type="truck_truck">
        <route edges="-14521675#1 -14521675#0 638729322#0 -427243116#0 -125451142#2 -125451142#1 -125451142#0 425942465#1 426927766#1 27668372#0 27668372#1 425942461 425942463 425942460 255818924#11 255818924#13 255818924#14 255818924#15 255818924#16 183853709 183853700#0 183853700#1 261785598#0 199890390#0 230628529#0 71958447#0 71958447#1 71958447#2 71958447#3 71958447#4 71958447#5 71958447#6 71958447#7 72767350 72767317#1 72767317#2 428721903 424210747#0 424210747#1 424210753#2 424210754#1" />
    </vehicle>